pglib_opf_case7336_epigrids/dapi/pglib_opf_case7336_epigrids_10regions_dapi.m
% -------------------------------------------------------------------------
% Partitioned MATPOWER Case File
% Copyright (c) 2025 Milad Hasanzadeh
% Generated on: 2026-06-14
% This file contains partitioned data for 10 regions


% -------------------- mpc_regionR1 --------------------

mpc_regionR1.version = '2';
mpc_regionR1.baseMVA = 100.0000;
mpc_regionR1.bus = [
%	bus_i       type        Pd          Qd          Gs          Bs          area        Vm          Va          baseKV      zone        Vmax        Vmin        
	 1	 2	 0	 0	 0	 0	 34	 1	 0	 345	 1	 1.1	 0.9;
	 2	 2	 0	 0	 0	 0	 34	 1	 0	 345	 1	 1.1	 0.9;
	 3	 2	 0	 0	 0	 0	 34	 1	 0	 138	 1	 1.1	 0.9;
	 4	 1	 0	 0	 0	 0	 34	 1	 0	 230	 1	 1.1	 0.9;
	 5	 2	 0	 0	 0	 0	 34	 1	 0	 138	 1	 1.1	 0.9;
	 6	 2	 0	 0	 0	 0	 34	 1	 0	 345	 1	 1.1	 0.9;
	 7	 2	 0	 0	 0	 0	 34	 1	 0	 345	 1	 1.1	 0.9;
	 8	 2	 0	 0	 0	 0	 34	 1	 0	 345	 1	 1.1	 0.9;
	 9	 2	 0	 0	 0	 0	 34	 1	 0	 138	 1	 1.1	 0.9;
	 10	 2	 0	 0	 0	 0	 34	 1	 0	 230	 1	 1.1	 0.9;
	 11	 2	 0	 0	 0	 0	 34	 1	 0	 138	 1	 1.1	 0.9;
	 12	 2	 0	 0	 0	 0	 34	 1	 0	 230	 1	 1.1	 0.9;
	 13	 1	 0	 0	 0	 0	 34	 1	 0	 345	 1	 1.1	 0.9;
	 14	 2	 0	 0	 0	 0	 34	 1	 0	 345	 1	 1.1	 0.9;
	 15	 2	 0	 0	 0	 0	 34	 1	 0	 138	 1	 1.1	 0.9;
	 16	 2	 0	 0	 0	 0	 34	 1	 0	 138	 1	 1.1	 0.9;
	 17	 2	 0	 0	 0	 0	 34	 1	 0	 138	 1	 1.1	 0.9;
	 18	 1	 0	 0	 0	 0	 34	 1	 0	 345	 1	 1.1	 0.9;
	 19	 2	 0	 0	 0	 0	 34	 1	 0	 138	 1	 1.1	 0.9;
	 20	 1	 0	 0	 0	 0	 34	 1	 0	 138	 1	 1.1	 0.9;
	 21	 1	 0	 0	 0	 0	 34	 1	 0	 230	 1	 1.1	 0.9;
	 22	 2	 0	 0	 0	 0	 34	 1	 0	 138	 1	 1.1	 0.9;
	 23	 2	 0	 0	 0	 0	 34	 1	 0	 69	 1	 1.1	 0.9;
	 24	 2	 0	 0	 0	 0	 34	 1	 0	 345	 1	 1.1	 0.9;
	 25	 1	 0	 0	 0	 0	 34	 1	 0	 345	 1	 1.1	 0.9;
	 26	 2	 0	 0	 0	 0	 34	 1	 0	 138	 1	 1.1	 0.9;
	 27	 2	 0	 0	 0	 0	 34	 1	 0	 69	 1	 1.1	 0.9;
	 28	 1	 0	 0	 0	 0	 34	 1	 0	 345	 1	 1.1	 0.9;
	 29	 1	 9.4	 4.58	 0	 0	 34	 1	 0	 138	 1	 1.1	 0.9;
	 30	 1	 3	 1.33	 0	 0	 34	 1	 0	 69	 1	 1.1	 0.9;
	 31	 1	 0	 0	 0	 0	 34	 1	 0	 138	 1	 1.1	 0.9;
	 32	 1	 4.68	 2.3	 0	 0	 34	 1	 0	 69	 1	 1.1	 0.9;
	 33	 1	 14.77	 5.34	 0	 0	 34	 1	 0	 138	 1	 1.1	 0.9;
	 34	 1	 17.14	 6.78	 0	 0	 34	 1	 0	 69	 1	 1.1	 0.9;
	 35	 1	 3.3	 1.55	 0	 0	 34	 1	 0	 69	 1	 1.1	 0.9;
	 36	 1	 10.95	 5.13	 0	 0	 34	 1	 0	 138	 1	 1.1	 0.9;
	 37	 1	 9.57	 4.18	 0	 0	 34	 1	 0	 138	 1	 1.1	 0.9;
	 38	 1	 0	 0	 0	 0	 34	 1	 0	 345	 1	 1.1	 0.9;
	 39	 1	 147.5	 29.37	 0	 0	 34	 1	 0	 138	 1	 1.1	 0.9;
	 40	 1	 12.29	 0	 0	 0	 34	 1	 0	 69	 1	 1.1	 0.9;
	 41	 1	 2.56	 1.25	 0	 0	 34	 1	 0	 69	 1	 1.1	 0.9;
	 42	 1	 17.7	 7.18	 0	 0	 34	 1	 0	 138	 1	 1.1	 0.9;
	 43	 1	 0	 0	 0	 0	 34	 1	 0	 138	 1	 1.1	 0.9;
	 44	 1	 12.81	 4.85	 0	 0	 34	 1	 0	 69	 1	 1.1	 0.9;
	 45	 1	 6.91	 3.43	 0	 0	 34	 1	 0	 138	 1	 1.1	 0.9;
	 46	 1	 7.98	 3.15	 0	 0	 34	 1	 0	 69	 1	 1.1	 0.9;
	 47	 1	 0	 0	 0	 0	 34	 1	 0	 138	 1	 1.1	 0.9;
	 48	 1	 14.33	 5.91	 0	 0	 34	 1	 0	 69	 1	 1.1	 0.9;
	 49	 1	 3.57	 1.48	 0	 0	 34	 1	 0	 69	 1	 1.1	 0.9;
	 50	 1	 5.53	 2.3	 0	 0	 34	 1	 0	 69	 1	 1.1	 0.9;
	 51	 1	 0	 0	 0	 0	 34	 1	 0	 345	 1	 1.1	 0.9;
	 52	 1	 0	 0	 0	 0	 34	 1	 0	 138	 1	 1.1	 0.9;
	 53	 1	 5.56	 2.3	 0	 0	 34	 1	 0	 69	 1	 1.1	 0.9;
	 54	 1	 3.48	 1.48	 0	 0	 34	 1	 0	 138	 1	 1.1	 0.9;
	 55	 1	 2.38	 1.12	 0	 0	 34	 1	 0	 138	 1	 1.1	 0.9;
	 56	 1	 0	 0	 0	 0	 34	 1	 0	 138	 1	 1.1	 0.9;
	 57	 1	 8.82	 4.25	 0	 0	 34	 1	 0	 138	 1	 1.1	 0.9;
	 58	 1	 9.19	 4.64	 0	 0	 34	 1	 0	 69	 1	 1.1	 0.9;
	 59	 1	 9.68	 3.87	 0	 0	 34	 1	 0	 69	 1	 1.1	 0.9;
	 60	 1	 9.16	 3.88	 0	 0	 34	 1	 0	 69	 1	 1.1	 0.9;
	 61	 1	 0	 0	 0	 0	 34	 1	 0	 138	 1	 1.1	 0.9;
	 62	 1	 10.34	 4.02	 0	 0	 34	 1	 0	 69	 1	 1.1	 0.9;
	 63	 1	 5.49	 2.17	 0	 0	 34	 1	 0	 69	 1	 1.1	 0.9;
	 64	 1	 0	 0	 0	 0	 34	 1	 0	 138	 1	 1.1	 0.9;
	 65	 1	 0	 0	 0	 0	 34	 1	 0	 138	 1	 1.1	 0.9;
	 66	 1	 3.23	 1.29	 0	 0	 34	 1	 0	 69	 1	 1.1	 0.9;
	 67	 1	 11.81	 5.46	 0	 0	 34	 1	 0	 69	 1	 1.1	 0.9;
	 68	 1	 7.26	 3.65	 0	 0	 34	 1	 0	 69	 1	 1.1	 0.9;
	 69	 1	 9.22	 3.72	 0	 0	 34	 1	 0	 69	 1	 1.1	 0.9;
	 70	 1	 6.95	 3.14	 0	 0	 34	 1	 0	 69	 1	 1.1	 0.9;
	 71	 1	 17.79	 6.79	 0	 0	 34	 1	 0	 69	 1	 1.1	 0.9;
	 72	 1	 4.95	 0	 0	 0	 34	 1	 0	 69	 1	 1.1	 0.9;
	 73	 1	 9.58	 0	 0	 0	 34	 1	 0	 69	 1	 1.1	 0.9;
	 74	 1	 9.37	 0	 0	 0	 34	 1	 0	 69	 1	 1.1	 0.9;
	 75	 1	 7.91	 0	 0	 0	 34	 1	 0	 69	 1	 1.1	 0.9;
	 76	 1	 5.16	 0	 0	 0	 34	 1	 0	 69	 1	 1.1	 0.9;
	 77	 1	 19.78	 0	 0	 0	 34	 1	 0	 69	 1	 1.1	 0.9;
	 78	 1	 11.3	 5.24	 0	 0	 34	 1	 0	 138	 1	 1.1	 0.9;
	 79	 1	 0	 0	 0	 0	 34	 1	 0	 138	 1	 1.1	 0.9;
	 80	 1	 6.64	 0	 0	 0	 34	 1	 0	 69	 1	 1.1	 0.9;
	 81	 1	 3.29	 1.67	 0	 0	 34	 1	 0	 69	 1	 1.1	 0.9;
	 82	 1	 0	 0	 0	 0	 34	 1	 0	 138	 1	 1.1	 0.9;
	 83	 1	 5.96	 0	 0	 0	 34	 1	 0	 69	 1	 1.1	 0.9;
	 84	 1	 9.83	 0	 0	 0	 34	 1	 0	 69	 1	 1.1	 0.9;
	 85	 1	 10.42	 0	 0	 0	 34	 1	 0	 69	 1	 1.1	 0.9;
	 86	 1	 5.46	 0	 0	 0	 34	 1	 0	 69	 1	 1.1	 0.9;
	 87	 1	 40.54	 0	 0	 0	 34	 1	 0	 138	 1	 1.1	 0.9;
	 88	 1	 6.47	 0	 0	 0	 34	 1	 0	 69	 1	 1.1	 0.9;
	 89	 1	 6.58	 0	 0	 0	 34	 1	 0	 69	 1	 1.1	 0.9;
	 90	 1	 10.49	 0	 0	 0	 34	 1	 0	 69	 1	 1.1	 0.9;
	 91	 1	 4.56	 0	 0	 0	 34	 1	 0	 69	 1	 1.1	 0.9;
	 92	 1	 3.62	 0	 0	 0	 34	 1	 0	 69	 1	 1.1	 0.9;
	 93	 1	 6.32	 0	 0	 0	 34	 1	 0	 69	 1	 1.1	 0.9;
	 94	 1	 6.26	 0	 0	 0	 34	 1	 0	 69	 1	 1.1	 0.9;
	 95	 1	 9.01	 0	 0	 0	 34	 1	 0	 69	 1	 1.1	 0.9;
	 96	 1	 2.88	 0	 0	 0	 34	 1	 0	 69	 1	 1.1	 0.9;
	 97	 1	 2.52	 0	 0	 0	 34	 1	 0	 69	 1	 1.1	 0.9;
	 98	 1	 3.62	 0	 0	 0	 34	 1	 0	 69	 1	 1.1	 0.9;
	 99	 1	 3.55	 0	 0	 0	 34	 1	 0	 69	 1	 1.1	 0.9;
	 100	 1	 4.33	 0	 0	 0	 34	 1	 0	 69	 1	 1.1	 0.9;
	 101	 1	 4.6	 0	 0	 0	 34	 1	 0	 69	 1	 1.1	 0.9;
	 102	 1	 5.2	 0	 0	 0	 34	 1	 0	 69	 1	 1.1	 0.9;
	 103	 1	 2.88	 0	 0	 0	 34	 1	 0	 69	 1	 1.1	 0.9;
	 104	 1	 2.19	 0	 0	 0	 34	 1	 0	 69	 1	 1.1	 0.9;
	 105	 1	 3.48	 0	 0	 0	 34	 1	 0	 69	 1	 1.1	 0.9;
	 106	 1	 3.31	 0	 0	 0	 34	 1	 0	 69	 1	 1.1	 0.9;
	 107	 1	 12.22	 0	 0	 0	 34	 1	 0	 69	 1	 1.1	 0.9;
	 108	 1	 10.95	 0	 0	 0	 34	 1	 0	 69	 1	 1.1	 0.9;
	 109	 1	 4.05	 0	 0	 0	 34	 1	 0	 69	 1	 1.1	 0.9;
	 110	 1	 3.27	 0	 0	 0	 34	 1	 0	 69	 1	 1.1	 0.9;
	 111	 1	 0	 0	 0	 0	 34	 1	 0	 138	 1	 1.1	 0.9;
	 112	 1	 4.58	 0	 0	 0	 34	 1	 0	 69	 1	 1.1	 0.9;
	 113	 1	 4.56	 0	 0	 0	 34	 1	 0	 69	 1	 1.1	 0.9;
	 114	 1	 4.09	 0	 0	 0	 34	 1	 0	 69	 1	 1.1	 0.9;
	 115	 1	 4.42	 0	 0	 0	 34	 1	 0	 69	 1	 1.1	 0.9;
	 116	 1	 4.61	 0	 0	 0	 34	 1	 0	 69	 1	 1.1	 0.9;
	 117	 1	 4.16	 0	 0	 0	 34	 1	 0	 69	 1	 1.1	 0.9;
	 118	 1	 2.94	 0	 0	 0	 34	 1	 0	 69	 1	 1.1	 0.9;
	 119	 1	 12.11	 0	 0	 0	 34	 1	 0	 69	 1	 1.1	 0.9;
	 120	 1	 16.53	 0	 0	 0	 34	 1	 0	 69	 1	 1.1	 0.9;
	 121	 1	 20.04	 0	 0	 0	 34	 1	 0	 69	 1	 1.1	 0.9;
	 122	 1	 15.02	 0	 0	 0	 34	 1	 0	 69	 1	 1.1	 0.9;
	 123	 1	 11.29	 0	 0	 0	 34	 1	 0	 69	 1	 1.1	 0.9;
	 124	 1	 0	 0	 0	 0	 34	 1	 0	 138	 1	 1.1	 0.9;
	 125	 1	 4.47	 0	 0	 0	 34	 1	 0	 69	 1	 1.1	 0.9;
	 126	 1	 6.75	 1.29	 0	 0	 34	 1	 0	 69	 1	 1.1	 0.9;
	 127	 1	 22.97	 4.43	 0	 0	 34	 1	 0	 69	 1	 1.1	 0.9;
	 128	 1	 18.37	 8.26	 0	 0	 34	 1	 0	 138	 1	 1.1	 0.9;
	 129	 1	 7.95	 3.71	 0	 0	 34	 1	 0	 69	 1	 1.1	 0.9;
	 130	 1	 12.94	 6.5	 0	 0	 34	 1	 0	 138	 1	 1.1	 0.9;
	 131	 1	 9.6	 3.92	 0	 0	 34	 1	 0	 69	 1	 1.1	 0.9;
	 132	 1	 0	 0	 0	 0	 34	 1	 0	 138	 1	 1.1	 0.9;
	 133	 1	 10.57	 4.83	 0	 0	 34	 1	 0	 69	 1	 1.1	 0.9;
	 134	 1	 7.56	 3.85	 0	 0	 34	 1	 0	 69	 1	 1.1	 0.9;
	 135	 1	 0	 0	 0	 0	 34	 1	 0	 138	 1	 1.1	 0.9;
	 136	 1	 0	 0	 0	 0	 34	 1	 0	 138	 1	 1.1	 0.9;
	 137	 1	 0	 0	 0	 0	 34	 1	 0	 138	 1	 1.1	 0.9;
	 138	 1	 5.94	 3.14	 0	 0	 34	 1	 0	 69	 1	 1.1	 0.9;
	 139	 1	 12.39	 6.28	 0	 0	 34	 1	 0	 69	 1	 1.1	 0.9;
	 140	 1	 10.72	 3.74	 0	 0	 34	 1	 0	 69	 1	 1.1	 0.9;
	 141	 1	 53.24	 23.75	 0	 0	 34	 1	 0	 138	 1	 1.1	 0.9;
	 142	 1	 0	 0	 0	 0	 34	 1	 0	 138	 1	 1.1	 0.9;
	 143	 1	 3.42	 1.72	 0	 0	 34	 1	 0	 69	 1	 1.1	 0.9;
	 144	 1	 14.3	 6.13	 0	 0	 34	 1	 0	 69	 1	 1.1	 0.9;
	 145	 1	 13.44	 6.58	 0	 0	 34	 1	 0	 138	 1	 1.1	 0.9;
	 146	 1	 11.08	 5.25	 0	 0	 34	 1	 0	 69	 1	 1.1	 0.9;
	 147	 1	 0	 0	 0	 0	 34	 1	 0	 138	 1	 1.1	 0.9;
	 148	 1	 5.12	 2.3	 0	 0	 34	 1	 0	 69	 1	 1.1	 0.9;
	 149	 1	 11.15	 5.18	 0	 0	 34	 1	 0	 138	 1	 1.1	 0.9;
	 150	 1	 18.43	 9	 0	 0	 34	 1	 0	 69	 1	 1.1	 0.9;
	 151	 1	 0	 0	 0	 0	 34	 1	 0	 138	 1	 1.1	 0.9;
	 152	 1	 0	 0	 0	 0	 34	 1	 0	 138	 1	 1.1	 0.9;
	 153	 1	 10.17	 4.51	 0	 0	 34	 1	 0	 69	 1	 1.1	 0.9;
	 154	 1	 0	 0	 0	 0	 34	 1	 0	 230	 1	 1.1	 0.9;
	 155	 1	 8.32	 4.03	 0	 0	 34	 1	 0	 69	 1	 1.1	 0.9;
	 156	 1	 0	 0	 0	 0	 34	 1	 0	 138	 1	 1.1	 0.9;
	 157	 1	 6.17	 2.42	 0	 0	 34	 1	 0	 69	 1	 1.1	 0.9;
	 158	 1	 9.8	 3.45	 0	 0	 34	 1	 0	 69	 1	 1.1	 0.9;
	 159	 1	 12.11	 5.64	 0	 0	 34	 1	 0	 69	 1	 1.1	 0.9;
	 160	 1	 19.92	 7.79	 0	 0	 34	 1	 0	 69	 1	 1.1	 0.9;
	 161	 1	 18.03	 8.19	 0	 0	 34	 1	 0	 69	 1	 1.1	 0.9;
	 162	 1	 8.06	 3.8	 0	 0	 34	 1	 0	 69	 1	 1.1	 0.9;
	 163	 1	 9.51	 3.87	 0	 0	 34	 1	 0	 69	 1	 1.1	 0.9;
	 164	 1	 10.84	 5.18	 0	 0	 34	 1	 0	 69	 1	 1.1	 0.9;
	 165	 1	 6.66	 2.79	 0	 0	 34	 1	 0	 69	 1	 1.1	 0.9;
	 166	 1	 12.4	 4.8	 0	 0	 34	 1	 0	 69	 1	 1.1	 0.9;
	 167	 1	 5.66	 2.6	 0	 0	 34	 1	 0	 69	 1	 1.1	 0.9;
	 168	 1	 6.31	 2.88	 0	 0	 34	 1	 0	 69	 1	 1.1	 0.9;
	 169	 1	 18.86	 7.96	 0	 0	 34	 1	 0	 69	 1	 1.1	 0.9;
	 170	 1	 16.27	 7.25	 0	 0	 34	 1	 0	 69	 1	 1.1	 0.9;
	 171	 1	 7.56	 3.68	 0	 0	 34	 1	 0	 69	 1	 1.1	 0.9;
	 172	 1	 6.4	 3.06	 0	 0	 34	 1	 0	 69	 1	 1.1	 0.9;
	 173	 1	 10.83	 4.7	 0	 0	 34	 1	 0	 69	 1	 1.1	 0.9;
	 174	 1	 10.66	 4.17	 0	 0	 34	 1	 0	 69	 1	 1.1	 0.9;
	 175	 1	 12.88	 5.46	 0	 0	 34	 1	 0	 69	 1	 1.1	 0.9;
	 176	 1	 8.12	 2.95	 0	 0	 34	 1	 0	 69	 1	 1.1	 0.9;
	 177	 1	 5.71	 2.59	 0	 0	 34	 1	 0	 69	 1	 1.1	 0.9;
	 178	 1	 14.21	 6.86	 0	 0	 34	 1	 0	 69	 1	 1.1	 0.9;
	 179	 1	 8.04	 3.54	 0	 0	 34	 1	 0	 69	 1	 1.1	 0.9;
	 180	 1	 10.62	 4.07	 0	 0	 34	 1	 0	 69	 1	 1.1	 0.9;
	 181	 1	 8.21	 1.55	 0	 0	 34	 1	 0	 69	 1	 1.1	 0.9;
	 182	 1	 14.05	 2.69	 0	 0	 34	 1	 0	 69	 1	 1.1	 0.9;
	 183	 1	 5.18	 0.97	 0	 0	 34	 1	 0	 69	 1	 1.1	 0.9;
	 184	 1	 7.78	 1.46	 0	 0	 34	 1	 0	 69	 1	 1.1	 0.9;
	 185	 1	 0	 0	 0	 0	 34	 1	 0	 138	 1	 1.1	 0.9;
	 186	 1	 5.64	 1.05	 0	 0	 34	 1	 0	 69	 1	 1.1	 0.9;
	 187	 1	 5.66	 1.07	 0	 0	 34	 1	 0	 69	 1	 1.1	 0.9;
	 188	 1	 12.81	 2.44	 0	 0	 34	 1	 0	 69	 1	 1.1	 0.9;
	 189	 1	 14.55	 2.79	 0	 0	 34	 1	 0	 69	 1	 1.1	 0.9;
	 190	 1	 7.26	 3.12	 0	 0	 34	 1	 0	 69	 1	 1.1	 0.9;
	 191	 1	 8.52	 3.54	 0	 0	 34	 1	 0	 69	 1	 1.1	 0.9;
	 192	 1	 0	 0	 0	 0	 34	 1	 0	 138	 1	 1.1	 0.9;
	 193	 1	 3.69	 0.71	 0	 0	 34	 1	 0	 69	 1	 1.1	 0.9;
	 194	 1	 7.86	 1.51	 0	 0	 34	 1	 0	 69	 1	 1.1	 0.9;
	 195	 1	 6.53	 1.25	 0	 0	 34	 1	 0	 69	 1	 1.1	 0.9;
	 196	 1	 13.11	 2.48	 0	 0	 34	 1	 0	 69	 1	 1.1	 0.9;
	 197	 1	 5.35	 1.03	 0	 0	 34	 1	 0	 69	 1	 1.1	 0.9;
	 198	 1	 9.93	 1.9	 0	 0	 34	 1	 0	 69	 1	 1.1	 0.9;
	 199	 1	 0	 0	 0	 0	 34	 1	 0	 138	 1	 1.1	 0.9;
	 200	 1	 7.97	 3.62	 0	 0	 34	 1	 0	 69	 1	 1.1	 0.9;
...
];

mpc_regionR1.gen = [
%	bus         Pg          Qg          Qmax        Qmin        Vg          mBase       status      Pmax        Pmin        Pc1         Pc2         Qc1min      Qc1max      Qc2min      Qc2max      ramp_agc    ramp_10     ramp_30     ramp_q      apf         
	 1	 242.3	 0	 172	-172	 1	 100	 1	 343	 141.6	 0	 0	 0	 0	 0	 0	 0	 0	 0	 0	 0;
	 2	 157.5	 25.25	 165.5	-115	 1	 100	 1	 230	 85	 0	 0	 0	 0	 0	 0	 0	 0	 0	 0	 267;
	 2	 131.25	 33.75	 165.5	-98	 1	 100	 1	 195	 67.5	 0	 0	 0	 0	 0	 0	 0	 0	 0	 0	 267;
	 2	 106.75	 38.25	 165.5	-89	 1	 100	 1	 146	 67.5	 0	 0	 0	 0	 0	 0	 0	 0	 0	 0	 267;
	 3	 1.5	 15.2	 97.6	-67.2	 1	 100	 1	 3	 0	 0	 0	 0	 0	 0	 0	 0	 0	 0	 0	 0;
	 5	 33	 15.1	 96.9	-66.7	 1	 100	 1	 66	 0	 0	 0	 0	 0	 0	 0	 0	 0	 0	 0	 0;
	 6	 176.75	 0	 153	-153	 1	 100	 1	 306	 47.5	 0	 0	 0	 0	 0	 0	 0	 0	 0	 0	 198.9;
	 6	 107.25	 19.65	 123.3	-84	 1	 100	 1	 167	 47.5	 0	 0	 0	 0	 0	 0	 0	 0	 0	 0	 198.9;
	 6	 17.25	 28	 121.2	-65.2	 1	 100	 1	 27	 7.5	 0	 0	 0	 0	 0	 0	 0	 0	 0	 0	 195.5;
	 7	 154.75	 20	 170	-130	 1	 100	 1	 260	 49.5	 0	 0	 0	 0	 0	 0	 0	 0	 0	 0	 351;
	 7	 80.5	 25.75	 117.5	-66	 1	 100	 1	 131	 30	 0	 0	 0	 0	 0	 0	 0	 0	 0	 0	 189.6;
	 7	 104.5	 13.75	 117.5	-90	 1	 100	 1	 179	 30	 0	 0	 0	 0	 0	 0	 0	 0	 0	 0	 189.6;
	 8	 197.25	 0	 173	-173	 1	 100	 1	 345	 49.5	 0	 0	 0	 0	 0	 0	 0	 0	 0	 0	 351;
	 8	 93.75	 26.6	 170.5	-117.3	 1	 100	 1	 160	 27.5	 0	 0	 0	 0	 0	 0	 0	 0	 0	 0	 352;
	 8	 94	 19.25	 117.5	-79	 1	 100	 1	 158	 30	 0	 0	 0	 0	 0	 0	 0	 0	 0	 0	 189.6;
	 8	 57.5	 27.15	 117.5	-63.2	 1	 100	 1	 85	 30	 0	 0	 0	 0	 0	 0	 0	 0	 0	 0	 189.6;
	 9	 42	 13.6	 87.2	-60	 1	 100	 1	 84	 0	 0	 0	 0	 0	 0	 0	 0	 0	 0	 0	 0;
	 10	 102	 12.2	 109.4	-85	 1	 100	 1	 169	 35	 0	 0	 0	 0	 0	 0	 0	 0	 0	 0	 176.6;
	 10	 124.5	 1.2	 109.4	-107	 1	 100	 1	 214	 35	 0	 0	 0	 0	 0	 0	 0	 0	 0	 0	 176.6;
	 10	 95.5	 19.9	 122.8	-83	 1	 100	 1	 166	 25	 0	 0	 0	 0	 0	 0	 0	 0	 0	 0	 198.1;
	 11	 215.5	 0	 191	-191	 1	 100	 1	 381	 50	 0	 0	 0	 0	 0	 0	 0	 0	 0	 0	 185;
	 11	 139.5	 0	 122	-122	 1	 100	 1	 244	 35	 0	 0	 0	 0	 0	 0	 0	 0	 0	 0	 172;
	 11	 168	 0	 151	-151	 1	 100	 1	 301	 35	 0	 0	 0	 0	 0	 0	 0	 0	 0	 0	 172;
	 12	 160.925	 0	 138	-138	 1	 100	 1	 275	 46.85	 0	 0	 0	 0	 0	 0	 0	 0	 0	 0	 176.8;
	 12	 168.0375	 0	 146	-146	 1	 100	 1	 291	 45.075	 0	 0	 0	 0	 0	 0	 0	 0	 0	 0	 170.1;
	 12	 110.5375	 8.7	 105.4	-88	 1	 100	 1	 176	 45.075	 0	 0	 0	 0	 0	 0	 0	 0	 0	 0	 170.1;
	 14	 236.75	 0	 208	-208	 1	 100	 1	 416	 57.5	 0	 0	 0	 0	 0	 0	 0	 0	 0	 0	 166;
	 14	 183.25	 0	 155	-155	 1	 100	 1	 309	 57.5	 0	 0	 0	 0	 0	 0	 0	 0	 0	 0	 166;
	 14	 63	 0	 56	-56	 1	 100	 1	 111	 15	 0	 0	 0	 0	 0	 0	 0	 0	 0	 0	 100;
	 15	 96.7	 2.75	 92.5	-87	 1	 100	 1	 173	 20.4	 0	 0	 0	 0	 0	 0	 0	 0	 0	 0	 163.2;
	 16	 92.75	 0	 93	-93	 1	 100	 1	 185	 0.5	 0	 0	 0	 0	 0	 0	 0	 0	 0	 0	 0;
	 17	 127.25	 0	 119	-119	 1	 100	 1	 237	 17.5	 0	 0	 0	 0	 0	 0	 0	 0	 0	 0	 131.8;
	 17	 322.25	 0	 314	-314	 1	 100	 1	 627	 17.5	 0	 0	 0	 0	 0	 0	 0	 0	 0	 0	 131.8;
	 19	 45.75	 0	 42	-42	 1	 100	 1	 84	 7.5	 0	 0	 0	 0	 0	 0	 0	 0	 0	 0	 61;
	 19	 95.75	 0	 94	-94	 1	 100	 1	 187	 4.5	 0	 0	 0	 0	 0	 0	 0	 0	 0	 0	 24;
	 19	 155	 0	 147	-147	 1	 100	 1	 294	 16	 0	 0	 0	 0	 0	 0	 0	 0	 0	 0	 50;
	 19	 41.75	 0	 38	-38	 1	 100	 1	 76	 7.5	 0	 0	 0	 0	 0	 0	 0	 0	 0	 0	 25;
	 22	 69.55	 0	 64	-64	 1	 100	 1	 128	 11.1	 0	 0	 0	 0	 0	 0	 0	 0	 0	 0	 41;
	 23	 6.25	 0	 13.2	-13.2	 1	 100	 1	 11	 1.5	 0	 0	 0	 0	 0	 0	 0	 0	 0	 0	 10.5;
	 23	 7.25	 0	 13.2	-13.2	 1	 100	 1	 13	 1.5	 0	 0	 0	 0	 0	 0	 0	 0	 0	 0	 10.5;
	 23	 16.75	 0	 16	-16	 1	 100	 1	 32	 1.5	 0	 0	 0	 0	 0	 0	 0	 0	 0	 0	 10.5;
	 24	 15.75	 0	 36	-36	 1	 100	 1	 29	 2.5	 0	 0	 0	 0	 0	 0	 0	 0	 0	 0	 28.6;
	 24	 12.25	 0	 36	-36	 1	 100	 1	 22	 2.5	 0	 0	 0	 0	 0	 0	 0	 0	 0	 0	 28.6;
	 26	 2	 0	 27.6	-27.6	 1	 100	 1	 3	 1	 0	 0	 0	 0	 0	 0	 0	 0	 0	 0	 23.8;
	 27	 6.8425	 0	 15.6	-15.6	 1	 100	 1	 13	 0.685	 0	 0	 0	 0	 0	 0	 0	 0	 0	 0	 5.875;
	 27	 12.8425	 0	 15.6	-15.6	 1	 100	 1	 25	 0.685	 0	 0	 0	 0	 0	 0	 0	 0	 0	 0	 5.875;
	 27	 8.8425	 0	 15.6	-15.6	 1	 100	 1	 17	 0.685	 0	 0	 0	 0	 0	 0	 0	 0	 0	 0	 5.875;
	 27	 15.8425	 0	 16	-16	 1	 100	 1	 31	 0.685	 0	 0	 0	 0	 0	 0	 0	 0	 0	 0	 5.875;
	 446	 2	 15.15	 97.3	-67	 1	 100	 1	 4	 0	 0	 0	 0	 0	 0	 0	 0	 0	 0	 0	 0;
	 456	 14.4	 0	 31.2	-31.2	 1	 100	 1	 26	 2.8	 0	 0	 0	 0	 0	 0	 0	 0	 0	 0	 42;
	 456	 4.4	 0	 31.2	-31.2	 1	 100	 1	 6	 2.8	 0	 0	 0	 0	 0	 0	 0	 0	 0	 0	 42;
	 456	 11.9	 0	 31.2	-31.2	 1	 100	 1	 21	 2.8	 0	 0	 0	 0	 0	 0	 0	 0	 0	 0	 42;
	 456	 4.9	 0	 31.2	-31.2	 1	 100	 1	 7	 2.8	 0	 0	 0	 0	 0	 0	 0	 0	 0	 0	 42;
	 456	 37.25	 0	 33	-33	 1	 100	 1	 66	 8.5	 0	 0	 0	 0	 0	 0	 0	 0	 0	 0	 35;
	 456	 39.25	 0	 35	-35	 1	 100	 1	 70	 8.5	 0	 0	 0	 0	 0	 0	 0	 0	 0	 0	 35;
	 456	 16.5	 0	 31.2	-31.2	 1	 100	 1	 23	 10	 0	 0	 0	 0	 0	 0	 0	 0	 0	 0	 35;
	 461	 33	 0	 32	-32	 1	 100	 1	 63	 3	 0	 0	 0	 0	 0	 0	 0	 0	 0	 0	 15.775;
	 461	 22	 0	 21	-21	 1	 100	 1	 41	 3	 0	 0	 0	 0	 0	 0	 0	 0	 0	 0	 15.775;
	 461	 20	 0	 19.2	-19.2	 1	 100	 1	 37	 3	 0	 0	 0	 0	 0	 0	 0	 0	 0	 0	 15.775;
	 461	 42	 0	 41	-41	 1	 100	 1	 81	 3	 0	 0	 0	 0	 0	 0	 0	 0	 0	 0	 15.775;
	 463	 8.25	 0	 46.8	-46.8	 1	 100	 1	 14	 2.5	 0	 0	 0	 0	 0	 0	 0	 0	 0	 0	 47;
	 464	 35.5	 0	 43.2	-43.2	 1	 100	 1	 62	 9	 0	 0	 0	 0	 0	 0	 0	 0	 0	 0	 44.2;
	 468	 3.5	 0	 31.2	-31.2	 1	 100	 1	 6	 1	 0	 0	 0	 0	 0	 0	 0	 0	 0	 0	 6;
	 468	 6	 0	 31.2	-31.2	 1	 100	 1	 11	 1	 0	 0	 0	 0	 0	 0	 0	 0	 0	 0	 6;
	 468	 2	 0	 31.2	-31.2	 1	 100	 1	 3	 1	 0	 0	 0	 0	 0	 0	 0	 0	 0	 0	 6;
	 468	 6.5	 0	 31.2	-31.2	 1	 100	 1	 12	 1	 0	 0	 0	 0	 0	 0	 0	 0	 0	 0	 6;
	 469	 10.65	 0	 26.4	-26.4	 1	 100	 1	 17	 4.3	 0	 0	 0	 0	 0	 0	 0	 0	 0	 0	 20;
	 469	 21.15	 0	 26.4	-26.4	 1	 100	 1	 38	 4.3	 0	 0	 0	 0	 0	 0	 0	 0	 0	 0	 20;
];

mpc_regionR1.branch = [
%	fbus        tbus        r           x           b           rateA       rateB       rateC       ratio       angle       status      angmin      angmax      
	 1	 51	 0.002102	 0.035768	 0.36394	 998	 1047.9	 1097.8	 0	 0	 1	-30	 30;
	 1	 252	 0.001869	 0.02158	 0.18937	 736	 772.8	 809.6	 0	 0	 1	-30	 30;
	 1	 441	 0.000357	 0.024997	 0	 400	 400	 400	 1	 0	 1	-30	 30;
	 1	 441	 0.000357	 0.024997	 0	 400	 400	 400	 1	 0	 1	-30	 30;
	 442	 1	 0.001184	 0.059188	 0	 250	 250	 250	 1	 0	 1	-30	 30;
	 442	 1	 0.001184	 0.059188	 0	 250	 250	 250	 1	 0	 1	-30	 30;
	 2	 219	 9.6e-05	 0.001114	 0.00963	 736	 772.8	 809.6	 0	 0	 1	-30	 30;
	 2	 443	 0.000296	 0.02222	 0	 450	 450	 450	 1	 0	 1	-30	 30;
	 2	 443	 0.000296	 0.02222	 0	 450	 450	 450	 1	 0	 1	-30	 30;
	 3	 299	 0.04991	 0.17143	 0.04114	 142	 149.1	 156.2	 0	 0	 1	-30	 30;
	 3	 437	 0.041522	 0.15802	 0.04431	 159	 166.9	 174.9	 0	 0	 1	-30	 30;
	 442	 3	 0.003841	 0.028932	 0.00803	 238	 249.9	 261.8	 0	 0	 1	-30	 30;
	 3	 446	 0.004395	 0.017272	 0.00452	 159	 166.9	 174.9	 0	 0	 1	-30	 30;
	 441	 4	 0.001966	 0.01245	 0.02607	 366	 384.3	 402.6	 0	 0	 1	-30	 30;
	 4	 446	 0.000389	 0.027247	 0	 400	 400	 400	 1	 0	 1	-30	 30;
	 4	 446	 0.000389	 0.027247	 0	 400	 400	 400	 1	 0	 1	-30	 30;
	 4	 518	 0.005539	 0.038171	 0.06742	 366	 384.3	 402.6	 0	 0	 1	-30	 30;
	 5	 346	 0.003725	 0.015509	 0.00484	 175	 183.7	 192.5	 0	 0	 1	-30	 30;
	 5	 351	 0.001272	 0.013717	 0.00393	 307	 322.4	 337.7	 0	 0	 1	-30	 30;
	 6	 7	 4.1e-05	 0.000445	 0.00432	 736	 772.8	 809.6	 0	 0	 1	-30	 30;
	 6	 260	 6.1e-05	 0.000679	 0.0064	 736	 772.8	 809.6	 0	 0	 1	-30	 30;
	 6	 447	 0.002529	 0.098634	 0	 150	 150	 150	 1	 0	 1	-30	 30;
	 6	 447	 0.002529	 0.098634	 0	 150	 150	 150	 1	 0	 1	-30	 30;
	 7	 260	 9.7e-05	 0.001077	 0.01016	 736	 772.8	 809.6	 0	 0	 1	-30	 30;
	 7	 337	 0.000186	 0.003079	 0.02886	 960	 1008	 1056	 0	 0	 1	-30	 30;
	 7	 448	 0.000179	 0.012499	 0	 800	 800	 800	 1	 0	 1	-30	 30;
	 7	 448	 0.000179	 0.012499	 0	 800	 800	 800	 1	 0	 1	-30	 30;
	 8	 252	 0.00175	 0.019211	 0.18676	 736	 772.8	 809.6	 0	 0	 1	-30	 30;
	 8	 260	 0.000923	 0.010649	 0.09338	 736	 772.8	 809.6	 0	 0	 1	-30	 30;
	 8	 450	 0.000438	 0.032886	 0	 450	 450	 450	 1	 0	 1	-30	 30;
	 8	 450	 0.000438	 0.032886	 0	 450	 450	 450	 1	 0	 1	-30	 30;
	 9	 332	 0.018492	 0.084858	 0.02175	 175	 183.7	 192.5	 0	 0	 1	-30	 30;
	 9	 354	 0.006549	 0.02772	 0.00624	 159	 166.9	 174.9	 0	 0	 1	-30	 30;
	 9	 544	 0.005239	 0.030686	 0.00836	 205	 215.2	 225.5	 0	 0	 1	-30	 30;
	 443	 10	 0.0002	 0.001331	 0.00251	 366	 384.3	 402.6	 0	 0	 1	-30	 30;
	 10	 451	 0.000272	 0.021798	 0	 500	 500	 500	 1	 0	 1	-30	 30;
	 10	 451	 0.000272	 0.021798	 0	 500	 500	 500	 1	 0	 1	-30	 30;
	 10	 510	 0.000171	 0.00207	 0.004	 528	 554.4	 580.8	 0	 0	 1	-30	 30;
	 11	 130	 0.003855	 0.015436	 0.00389	 159	 166.9	 174.9	 0	 0	 1	-30	 30;
	 11	 132	 0.003148	 0.012603	 0.00318	 159	 166.9	 174.9	 0	 0	 1	-30	 30;
	 11	 136	 0.005735	 0.022313	 0.00596	 159	 166.9	 174.9	 0	 0	 1	-30	 30;
	 11	 141	 0.004298	 0.031206	 0.01078	 250	 262.5	 275	 0	 0	 1	-30	 30;
	 11	 225	 0.006456	 0.022821	 0.00514	 142	 149.1	 156.2	 0	 0	 1	-30	 30;
	 11	 230	 0.010166	 0.048119	 0.01157	 175	 183.7	 192.5	 0	 0	 1	-30	 30;
	 11	 233	 0.003272	 0.015484	 0.00372	 175	 183.7	 192.5	 0	 0	 1	-30	 30;
	 11	 452	 0.002136	 0.083306	 0	 150	 150	 150	 1	 0	 1	-30	 30;
	 11	 452	 0.002136	 0.083306	 0	 150	 150	 150	 1	 0	 1	-30	 30;
	 12	 453	 0.000699	 0.036327	 0	 300	 300	 300	 1	 0	 1	-30	 30;
	 12	 453	 0.000699	 0.036327	 0	 300	 300	 300	 1	 0	 1	-30	 30;
	 454	 12	 0.001897	 0.083478	 0	 200	 200	 200	 1	 0	 1	-30	 30;
	 454	 12	 0.001897	 0.083478	 0	 200	 200	 200	 1	 0	 1	-30	 30;
	 12	 457	 0.000237	 0.001583	 0.00298	 366	 384.3	 402.6	 0	 0	 1	-30	 30;
	 12	 466	 0.000181	 0.001632	 0.00322	 435	 456.8	 478.5	 0	 0	 1	-30	 30;
	 13	 38	 0.000431	 0.004729	 0.04594	 736	 772.8	 809.6	 0	 0	 1	-30	 30;
	 13	 337	 0.003855	 0.042426	 0.4139	 736	 772.8	 809.6	 0	 0	 1	-30	 30;
	 13	 455	 0.000192	 0.015383	 0	 650	 650	 650	 1	 0	 1	-30	 30;
	 13	 455	 0.000192	 0.015383	 0	 650	 650	 650	 1	 0	 1	-30	 30;
	 456	 13	 0.000529	 0.036996	 0	 400	 400	 400	 1	 0	 1	-30	 30;
	 456	 13	 0.000529	 0.036996	 0	 400	 400	 400	 1	 0	 1	-30	 30;
	 14	 25	 2e-05	 0.000276	 0.00275	 868	 911.4	 954.8	 0	 0	 1	-30	 30;
	 14	 457	 0.000222	 0.016665	 0	 600	 600	 600	 1	 0	 1	-30	 30;
	 14	 457	 0.000222	 0.016665	 0	 600	 600	 600	 1	 0	 1	-30	 30;
	 458	 14	 0.000783	 0.042278	 0	 350	 350	 350	 1	 0	 1	-30	 30;
	 458	 14	 0.000783	 0.042278	 0	 350	 350	 350	 1	 0	 1	-30	 30;
	 15	 311	 0.00112	 0.004359	 0.00116	 159	 166.9	 174.9	 0	 0	 1	-30	 30;
	 15	 314	 0.000751	 0.004839	 0.00127	 219	 229.9	 240.9	 0	 0	 1	-30	 30;
	 16	 242	 0.027018	 0.097867	 0.02101	 142	 149.1	 156.2	 0	 0	 1	-30	 30;
	 16	 243	 0.048177	 0.16251	 0.04045	 142	 149.1	 156.2	 0	 0	 1	-30	 30;
	 16	 257	 0.087072	 0.23762	 0.0525	 118	 123.9	 129.8	 0	 0	 1	-30	 30;
	 16	 407	 0.064481	 0.16762	 0.04075	 118	 123.9	 129.8	 0	 0	 1	-30	 30;
	 16	 408	 0.057247	 0.15384	 0.03491	 118	 123.9	 129.8	 0	 0	 1	-30	 30;
	 16	 426	 0.037332	 0.12815	 0.03073	 142	 149.1	 156.2	 0	 0	 1	-30	 30;
	 16	 459	 0.002136	 0.083306	 0	 150	 150	 150	 1	 0	 1	-30	 30;
	 16	 459	 0.002136	 0.083306	 0	 150	 150	 150	 1	 0	 1	-30	 30;
	 17	 405	 0.001959	 0.007843	 0.00198	 159	 166.9	 174.9	 0	 0	 1	-30	 30;
	 17	 413	 0.001259	 0.004403	 0.00146	 159	 166.9	 174.9	 0	 0	 1	-30	 30;
	 17	 460	 0.00142	 0.062484	 0	 200	 200	 200	 1	 0	 1	-30	 30;
	 17	 460	 0.00142	 0.062484	 0	 200	 200	 200	 1	 0	 1	-30	 30;
	 18	 38	 0.00054	 0.005924	 0.05754	 736	 772.8	 809.6	 0	 0	 1	-30	 30;
	 18	 461	 0.0008	 0.039992	 0	 250	 250	 250	 1	 0	 1	-30	 30;
	 18	 461	 0.0008	 0.039992	 0	 250	 250	 250	 1	 0	 1	-30	 30;
	 19	 111	 0.000905	 0.00305	 0.00076	 142	 149.1	 156.2	 0	 0	 1	-30	 30;
	 19	 462	 0.002136	 0.083306	 0	 150	 150	 150	 1	 0	 1	-30	 30;
	 19	 462	 0.002136	 0.083306	 0	 150	 150	 150	 1	 0	 1	-30	 30;
	 20	 262	 0.010044	 0.026965	 0.00611	 118	 123.9	 129.8	 0	 0	 1	-30	 30;
	 20	 313	 0.003598	 0.009509	 0.00223	 118	 123.9	 129.8	 0	 0	 1	-30	 30;
	 20	 463	 0.003471	 0.12495	 0	 100	 100	 100	 1	 0	 1	-30	 30;
	 20	 463	 0.003471	 0.12495	 0	 100	 100	 100	 1	 0	 1	-30	 30;
	 21	 335	 0.000334	 0.002333	 0.004	 366	 384.3	 402.6	 0	 0	 1	-30	 30;
	 21	 464	 0.000872	 0.043591	 0	 250	 250	 250	 1	 0	 1	-30	 30;
	 21	 464	 0.000872	 0.043591	 0	 250	 250	 250	 1	 0	 1	-30	 30;
	 21	 518	 0.002398	 0.016816	 0.02863	 366	 384.3	 402.6	 0	 0	 1	-30	 30;
	 22	 312	 0.001842	 0.006319	 0.00151	 142	 149.1	 156.2	 0	 0	 1	-30	 30;
	 22	 330	 0.005152	 0.018655	 0.004	 142	 149.1	 156.2	 0	 0	 1	-30	 30;
	 23	 364	 0.055396	 0.16675	 0.00326	 71	 74.6	 78.1	 0	 0	 1	-30	 30;
	 23	 440	 0.23039	 0.51034	 0.00838	 57	 59.9	 62.7	 0	 0	 1	-30	 30;
	 24	 261	 8.6e-05	 0.000977	 0.00889	 736	 772.8	 809.6	 0	 0	 1	-30	 30;
	 24	 337	 6.7e-05	 0.000739	 0.00718	 736	 772.8	 809.6	 0	 0	 1	-30	 30;
	 24	 465	 0.004748	 0.17093	 0	 100	 100	 100	 1	 0	 1	-30	 30;
	 24	 465	 0.004748	 0.17093	 0	 100	 100	 100	 1	 0	 1	-30	 30;
	 25	 260	 0.000567	 0.00817	 0.07496	 868	 911.4	 954.8	 0	 0	 1	-30	 30;
	 25	 466	 0.000296	 0.02222	 0	 450	 450	 450	 1	 0	 1	-30	 30;
	 25	 466	 0.000296	 0.02222	 0	 450	 450	 450	 1	 0	 1	-30	 30;
	 26	 373	 0.009469	 0.037219	 0.00974	 159	 166.9	 174.9	 0	 0	 1	-30	 30;
	 26	 472	 0.009559	 0.038902	 0.00948	 159	 166.9	 174.9	 0	 0	 1	-30	 30;
	 27	 201	 0.06125	 0.10174	 0.00216	 41	 43.1	 45.1	 0	 0	 1	-30	 30;
	 27	 473	 0.069774	 0.069792	 0.00094	 28	 29.4	 30.8	 0	 0	 1	-30	 30;
	 28	 261	 7.5e-05	 0.000846	 0.0077	 736	 772.8	 809.6	 0	 0	 1	-30	 30;
	 28	 469	 0.000357	 0.024997	 0	 400	 400	 400	 1	 0	 1	-30	 30;
	 28	 469	 0.000357	 0.024997	 0	 400	 400	 400	 1	 0	 1	-30	 30;
	 29	 31	 0.012795	 0.051231	 0.01291	 159	 166.9	 174.9	 0	 0	 1	-30	 30;
	 29	 341	 0.009	 0.036036	 0.00908	 159	 166.9	 174.9	 0	 0	 1	-30	 30;
	 30	 470	 0.038767	 0.028025	 0.00043	 24	 25.2	 26.4	 0	 0	 1	-30	 30;
	 31	 33	 0.006032	 0.024546	 0.00598	 159	 166.9	 174.9	 0	 0	 1	-30	 30;
	 31	 470	 0.00806	 0.24987	 0	 50	 50	 50	 1	 0	 1	-30	 30;
	 31	 470	 0.00806	 0.24987	 0	 50	 50	 50	 1	 0	 1	-30	 30;
	 470	 32	 0.043916	 0.031746	 0.00048	 24	 25.2	 26.4	 0	 0	 1	-30	 30;
	 453	 33	 0.010227	 0.03979	 0.01063	 159	 166.9	 174.9	 0	 0	 1	-30	 30;
	 34	 546	 0.13819	 0.35537	 0.0055	 59	 61.9	 64.9	 0	 0	 1	-30	 30;
	 35	 353	 0.3454	 0.27085	 0.00348	 24	 25.2	 26.4	 0	 0	 1	-30	 30;
	 36	 37	 0.022573	 0.058612	 0.01423	 118	 123.9	 129.8	 0	 0	 1	-30	 30;
	 36	 234	 0.046464	 0.12482	 0.02831	 118	 123.9	 129.8	 0	 0	 1	-30	 30;
	 37	 250	 0.015517	 0.042249	 0.00931	 118	 123.9	 129.8	 0	 0	 1	-30	 30;
	 38	 471	 0.000148	 0.01111	 0	 900	 900	 900	 1	 0	 1	-30	 30;
	 472	 38	 0.000359	 0.026907	 0	 550	 550	 550	 1	 0	 1	-30	 30;
	 456	 39	 0.004706	 0.040083	 0.01	 250	 262.5	 275	 0	 0	 1	-30	 30;
	 40	 71	 0.056653	 0.14564	 0.00225	 59	 61.9	 64.9	 0	 0	 1	-30	 30;
	 41	 486	 0.10343	 0.081857	 0.00103	 24	 25.2	 26.4	 0	 0	 1	-30	 30;
	 42	 47	 0.002644	 0.009069	 0.00217	 142	 149.1	 156.2	 0	 0	 1	-30	 30;
	 42	 124	 0.001804	 0.008623	 0.00302	 193	 202.6	 212.3	 0	 0	 1	-30	 30;
	 43	 45	 0.009454	 0.025741	 0.00567	 118	 123.9	 129.8	 0	 0	 1	-30	 30;
	 43	 240	 0.008015	 0.027494	 0.00659	 142	 149.1	 156.2	 0	 0	 1	-30	 30;
	 43	 473	 0.00806	 0.24987	 0	 50	 50	 50	 1	 0	 1	-30	 30;
	 43	 473	 0.00806	 0.24987	 0	 50	 50	 50	 1	 0	 1	-30	 30;
	 44	 474	 0.056755	 0.11237	 0.00165	 41	 43.1	 45.1	 0	 0	 1	-30	 30;
	 44	 480	 0.073129	 0.047345	 0.0009	 24	 25.2	 26.4	 0	 0	 1	-30	 30;
	 45	 47	 0.003822	 0.0101	 0.00236	 118	 123.9	 129.8	 0	 0	 1	-30	 30;
	 46	 474	 0.015939	 0.02847	 0.00042	 39	 41	 42.9	 0	 0	 1	-30	 30;
	 47	 52	 0.0022	 0.005712	 0.00139	 118	 123.9	 129.8	 0	 0	 1	-30	 30;
	 47	 64	 0.00904	 0.030458	 0.00757	 142	 149.1	 156.2	 0	 0	 1	-30	 30;
	 451	 47	 0.020237	 0.12063	 0.03176	 205	 215.2	 225.5	 0	 0	 1	-30	 30;
	 47	 474	 0.003471	 0.12495	 0	 100	 100	 100	 1	 0	 1	-30	 30;
	 47	 474	 0.003471	 0.12495	 0	 100	 100	 100	 1	 0	 1	-30	 30;
	 474	 48	 0.007023	 0.014372	 0.00035	 59	 61.9	 64.9	 0	 0	 1	-30	 30;
	 49	 50	 0.018026	 0.01413	 0.00018	 24	 25.2	 26.4	 0	 0	 1	-30	 30;
	 50	 477	 0.006398	 0.012667	 0.00019	 41	 43.1	 45.1	 0	 0	 1	-30	 30;
	 51	 219	 0.001609	 0.022037	 0.22483	 868	 911.4	 954.8	 0	 0	 1	-30	 30;
	 51	 475	 0.000128	 0.010206	 0	 1450	 1450	 1450	 1	 0	 1	-30	 30;
	 52	 54	 0.000666	 0.002283	 0.00055	 142	 149.1	 156.2	 0	 0	 1	-30	 30;
	 52	 477	 0.00806	 0.24987	 0	 50	 50	 50	 1	 0	 1	-30	 30;
	 52	 477	 0.00806	 0.24987	 0	 50	 50	 50	 1	 0	 1	-30	 30;
	 477	 53	 0.022156	 0.017534	 0.00022	 24	 25.2	 26.4	 0	 0	 1	-30	 30;
	 54	 55	 0.000888	 0.003047	 0.00073	 142	 149.1	 156.2	 0	 0	 1	-30	 30;
	 55	 56	 0.000928	 0.003279	 0.00074	 142	 149.1	 156.2	 0	 0	 1	-30	 30;
	 56	 57	 0.001047	 0.00365	 0.00085	 142	 149.1	 156.2	 0	 0	 1	-30	 30;
	 56	 478	 0.00806	 0.24987	 0	 50	 50	 50	 1	 0	 1	-30	 30;
	 56	 478	 0.00806	 0.24987	 0	 50	 50	 50	 1	 0	 1	-30	 30;
	 57	 61	 0.001688	 0.00799	 0.00192	 175	 183.7	 192.5	 0	 0	 1	-30	 30;
	 475	 57	 0.000617	 0.008249	 0.00226	 347	 364.4	 381.7	 0	 0	 1	-30	 30;
	 476	 58	 0.033214	 0.06576	 0.00097	 41	 43.1	 45.1	 0	 0	 1	-30	 30;
	 59	 60	 0.007593	 0.015034	 0.00022	 41	 43.1	 45.1	 0	 0	 1	-30	 30;
	 59	 479	 0.013807	 0.035492	 0.00055	 59	 61.9	 64.9	 0	 0	 1	-30	 30;
	 61	 78	 0.005905	 0.029115	 0.00787	 185	 194.2	 203.5	 0	 0	 1	-30	 30;
	 475	 61	 0.003159	 0.014953	 0.0036	 175	 183.7	 192.5	 0	 0	 1	-30	 30;
	 61	 479	 0.002136	 0.083306	 0	 150	 150	 150	 1	 0	 1	-30	 30;
	 61	 479	 0.002136	 0.083306	 0	 150	 150	 150	 1	 0	 1	-30	 30;
	 62	 63	 0.0055	 0.016555	 0.00032	 71	 74.6	 78.1	 0	 0	 1	-30	 30;
	 476	 62	 0.016734	 0.055825	 0.00088	 71	 74.6	 78.1	 0	 0	 1	-30	 30;
	 478	 62	 0.017173	 0.017345	 0.00023	 28	 29.4	 30.8	 0	 0	 1	-30	 30;
	 63	 68	 0.042191	 0.077278	 0.00133	 41	 43.1	 45.1	 0	 0	 1	-30	 30;
	 64	 65	 0.002158	 0.0052	 0.00147	 118	 123.9	 129.8	 0	 0	 1	-30	 30;
	 64	 199	 0.006729	 0.016914	 0.00438	 118	 123.9	 129.8	 0	 0	 1	-30	 30;
	 64	 480	 0.00806	 0.24987	 0	 50	 50	 50	 1	 0	 1	-30	 30;
	 64	 480	 0.00806	 0.24987	 0	 50	 50	 50	 1	 0	 1	-30	 30;
	 65	 481	 0.00806	 0.24987	 0	 50	 50	 50	 1	 0	 1	-30	 30;
	 65	 481	 0.00806	 0.24987	 0	 50	 50	 50	 1	 0	 1	-30	 30;
	 481	 66	 0.090678	 0.071763	 0.0009	 24	 25.2	 26.4	 0	 0	 1	-30	 30;
	 474	 67	 0.01918	 0.041101	 0.00072	 57	 59.9	 62.7	 0	 0	 1	-30	 30;
	 481	 68	 0.10115	 0.08005	 0.00101	 24	 25.2	 26.4	 0	 0	 1	-30	 30;
	 69	 70	 0.054404	 0.065127	 0.00108	 33	 34.7	 36.3	 0	 0	 1	-30	 30;
	 479	 69	 0.018767	 0.048243	 0.00075	 59	 61.9	 64.9	 0	 0	 1	-30	 30;
	 71	 72	 0.15778	 0.15938	 0.00211	 28	 29.4	 30.8	 0	 0	 1	-30	 30;
	 71	 75	 0.035315	 0.10129	 0.00156	 64	 67.2	 70.4	 0	 0	 1	-30	 30;
	 476	 71	 0.022553	 0.15482	 0.00282	 115	 120.7	 126.5	 0	 0	 1	-30	 30;
	 73	 74	 0.007634	 0.015115	 0.00022	 41	 43.1	 45.1	 0	 0	 1	-30	 30;
	 73	 484	 0.050269	 0.12785	 0.00202	 59	 61.9	 64.9	 0	 0	 1	-30	 30;
	 75	 76	 0.055091	 0.060594	 0.00081	 30	 31.5	 33	 0	 0	 1	-30	 30;
	 75	 122	 0.020875	 0.080313	 0.00137	 80	 84	 88	 0	 0	 1	-30	 30;
	 75	 482	 0.009432	 0.045973	 0.00086	 95	 99.8	 104.5	 0	 0	 1	-30	 30;
	 77	 80	 0.008164	 0.026181	 0.00065	 80	 84	 88	 0	 0	 1	-30	 30;
	 462	 77	 0.044752	 0.053572	 0.00089	 33	 34.7	 36.3	 0	 0	 1	-30	 30;
	 78	 79	 0.003077	 0.014114	 0.00362	 175	 183.7	 192.5	 0	 0	 1	-30	 30;
	 79	 111	 0.011511	 0.039489	 0.00946	 142	 149.1	 156.2	 0	 0	 1	-30	 30;
	 79	 482	 0.002136	 0.083306	 0	 150	 150	 150	 1	 0	 1	-30	 30;
	 79	 482	 0.002136	 0.083306	 0	 150	 150	 150	 1	 0	 1	-30	 30;
	 80	 81	 0.021476	 0.04252	 0.00062	 41	 43.1	 45.1	 0	 0	 1	-30	 30;
	 482	 80	 0.026895	 0.055039	 0.00135	 59	 61.9	 64.9	 0	 0	 1	-30	 30;
	 482	 81	 0.024041	 0.055806	 0.00106	 59	 61.9	 64.9	 0	 0	 1	-30	 30;
	 82	 87	 0.015166	 0.038988	 0.00965	 118	 123.9	 129.8	 0	 0	 1	-30	 30;
	 475	 82	 0.007053	 0.069449	 0.02871	 325	 341.2	 357.5	 0	 0	 1	-30	 30;
...
];

mpc_regionR1.gencost = [
%	2           startup     shutdown    n           c(n-1)...c0 
	 2	 0	 0	 3	 0	 30.27914	 0;
	 2	 0	 0	 3	 0	 31.059998	 0;
	 2	 0	 0	 3	 0	 26.674143	 0;
	 2	 0	 0	 3	 0	 45.914746	 0;
	 2	 0	 0	 3	 0	 26.931754	 0;
	 2	 0	 0	 3	 0	 45.460831	 0;
	 2	 0	 0	 3	 0	 44.243585	 0;
	 2	 0	 0	 3	 0	 37.016262	 0;
	 2	 0	 0	 3	 0	 34.651201	 0;
	 2	 0	 0	 3	 0	 34.366261	 0;
	 2	 0	 0	 3	 0	 43.28973	 0;
	 2	 0	 0	 3	 0	 51.095008	 0;
	 2	 0	 0	 3	 0	 31.194203	 0;
	 2	 0	 0	 3	 0	 30.513483	 0;
	 2	 0	 0	 3	 0	 46.599436	 0;
	 2	 0	 0	 3	 0	 42.909073	 0;
	 2	 0	 0	 3	 0	 53.068223	 0;
	 2	 0	 0	 3	 0	 44.787425	 0;
	 2	 0	 0	 3	 0	 37.846476	 0;
	 2	 0	 0	 3	 0	 38.953833	 0;
	 2	 0	 0	 3	 0	 57.135944	 0;
	 2	 0	 0	 3	 0	 35.22638	 0;
	 2	 0	 0	 3	 0	 33.00922	 0;
	 2	 0	 0	 3	 0	 20.432953	 0;
	 2	 0	 0	 3	 0	 13.095593	 0;
	 2	 0	 0	 3	 0	 51.466398	 0;
	 2	 0	 0	 3	 0	 42.508288	 0;
	 2	 0	 0	 3	 0	 30.891358	 0;
	 2	 0	 0	 3	 0	 15.476657	 0;
	 2	 0	 0	 3	 0	 34.876366	 0;
	 2	 0	 0	 3	 0	 23.447431	 0;
	 2	 0	 0	 3	 0	 43.293379	 0;
	 2	 0	 0	 3	 0	 26.521498	 0;
	 2	 0	 0	 3	 0	 48.115127	 0;
	 2	 0	 0	 3	 0	 30.769239	 0;
	 2	 0	 0	 3	 0	 33.013278	 0;
	 2	 0	 0	 3	 0	 108.87059	 0;
	 2	 0	 0	 3	 0	 23.320868	 0;
	 2	 0	 0	 3	 0	 53.297812	 0;
	 2	 0	 0	 3	 0	 114.074454	 0;
	 2	 0	 0	 3	 0	 23.888202	 0;
	 2	 0	 0	 3	 0	 22.473467	 0;
	 2	 0	 0	 3	 0	 43.808962	 0;
	 2	 0	 0	 3	 0	 31.980141	 0;
	 2	 0	 0	 3	 0	 47.524744	 0;
	 2	 0	 0	 3	 0	 24.703589	 0;
	 2	 0	 0	 3	 0	 23.84755	 0;
	 2	 0	 0	 3	 0	 45.600229	 0;
	 2	 0	 0	 3	 0	 36.420285	 0;
	 2	 0	 0	 3	 0	 18.895502	 0;
	 2	 0	 0	 3	 0	 21.166197	 0;
	 2	 0	 0	 3	 0	 32.64273	 0;
	 2	 0	 0	 3	 0	 30.580622	 0;
	 2	 0	 0	 3	 0	 28.337709	 0;
	 2	 0	 0	 3	 0	 42.525823	 0;
	 2	 0	 0	 3	 0	 85.479548	 0;
	 2	 0	 0	 3	 0	 35.88405	 0;
	 2	 0	 0	 3	 0	 94.206319	 0;
	 2	 0	 0	 3	 0	 123.847188	 0;
	 2	 0	 0	 3	 0	 42.304408	 0;
	 2	 0	 0	 3	 0	 19.853218	 0;
	 2	 0	 0	 3	 0	 49.622659	 0;
	 2	 0	 0	 3	 0	 108.41018	 0;
	 2	 0	 0	 3	 0	 37.474409	 0;
	 2	 0	 0	 3	 0	 33.579893	 0;
	 2	 0	 0	 3	 0	 103.494182	 0;
	 2	 0	 0	 3	 0	 49.567641	 0;
	 2	 0	 0	 3	 0	 50.16845	 0;
];


% -------------------- mpc_regionR2 --------------------

mpc_regionR2.version = '2';
mpc_regionR2.baseMVA = 100.0000;
mpc_regionR2.bus = [
%	bus_i       type        Pd          Qd          Gs          Bs          area        Vm          Va          baseKV      zone        Vmax        Vmin        
	 1	 2	 0	 0	 0	 0	 34	 1	 0	 230	 1	 1.1	 0.9;
	 2	 2	 0	 0	 0	 0	 34	 1	 0	 345	 1	 1.1	 0.9;
	 3	 2	 0	 0	 0	 0	 34	 1	 0	 345	 1	 1.1	 0.9;
	 4	 2	 0	 0	 0	 0	 34	 1	 0	 345	 1	 1.1	 0.9;
	 5	 2	 0	 0	 0	 0	 34	 1	 0	 230	 1	 1.1	 0.9;
	 6	 2	 0	 0	 0	 0	 34	 1	 0	 138	 1	 1.1	 0.9;
	 7	 2	 0	 0	 0	 0	 34	 1	 0	 138	 1	 1.1	 0.9;
	 8	 2	 0	 0	 0	 0	 34	 1	 0	 345	 1	 1.1	 0.9;
	 9	 2	 0	 0	 0	 0	 34	 1	 0	 345	 1	 1.1	 0.9;
	 10	 2	 0	 0	 0	 0	 34	 1	 0	 345	 1	 1.1	 0.9;
	 11	 2	 0	 0	 0	 0	 34	 1	 0	 138	 1	 1.1	 0.9;
	 12	 2	 0	 0	 0	 0	 34	 1	 0	 345	 1	 1.1	 0.9;
	 13	 2	 0	 0	 0	 0	 34	 1	 0	 138	 1	 1.1	 0.9;
	 14	 2	 0	 0	 0	 0	 34	 1	 0	 69	 1	 1.1	 0.9;
	 15	 1	 14.35	 6.55	 0	 0	 34	 1	 0	 69	 1	 1.1	 0.9;
	 16	 1	 8.66	 3.31	 0	 0	 34	 1	 0	 69	 1	 1.1	 0.9;
	 17	 1	 0	 0	 0	 0	 34	 1	 0	 138	 1	 1.1	 0.9;
	 18	 1	 5.89	 2.35	 0	 0	 34	 1	 0	 138	 1	 1.1	 0.9;
	 19	 1	 2.75	 1.4	 0	 0	 34	 1	 0	 69	 1	 1.1	 0.9;
	 20	 1	 0	 0	 0	 0	 34	 1	 0	 138	 1	 1.1	 0.9;
	 21	 1	 5.23	 2.47	 0	 0	 34	 1	 0	 69	 1	 1.1	 0.9;
	 22	 1	 11.61	 4.94	 0	 0	 34	 1	 0	 69	 1	 1.1	 0.9;
	 23	 1	 6.62	 0	 0	 0	 34	 1	 0	 69	 1	 1.1	 0.9;
	 24	 1	 8.51	 0	 0	 0	 34	 1	 0	 69	 1	 1.1	 0.9;
	 25	 1	 5.51	 0	 0	 0	 34	 1	 0	 69	 1	 1.1	 0.9;
	 26	 1	 6.96	 0	 0	 0	 34	 1	 0	 69	 1	 1.1	 0.9;
	 27	 1	 2.45	 0	 0	 0	 34	 1	 0	 69	 1	 1.1	 0.9;
	 28	 1	 5.42	 1.03	 0	 0	 34	 1	 0	 69	 1	 1.1	 0.9;
	 29	 1	 0	 0	 0	 0	 34	 1	 0	 138	 1	 1.1	 0.9;
	 30	 1	 9.11	 1.71	 0	 0	 34	 1	 0	 69	 1	 1.1	 0.9;
	 31	 1	 2.39	 0.46	 0	 0	 34	 1	 0	 69	 1	 1.1	 0.9;
	 32	 1	 11.18	 2.11	 0	 0	 34	 1	 0	 69	 1	 1.1	 0.9;
	 33	 1	 17.37	 3.31	 0	 0	 34	 1	 0	 69	 1	 1.1	 0.9;
	 34	 1	 4.63	 1.98	 0	 0	 34	 1	 0	 69	 1	 1.1	 0.9;
	 35	 1	 0	 0	 0	 0	 34	 1	 0	 138	 1	 1.1	 0.9;
	 36	 1	 15.49	 2.94	 0	 0	 34	 1	 0	 69	 1	 1.1	 0.9;
	 37	 1	 7.22	 2.77	 0	 0	 34	 1	 0	 69	 1	 1.1	 0.9;
	 38	 1	 4.35	 1.54	 0	 0	 34	 1	 0	 69	 1	 1.1	 0.9;
	 39	 1	 0	 0	 0	 0	 34	 1	 0	 138	 1	 1.1	 0.9;
	 40	 1	 0	 0	 0	 0	 34	 1	 0	 138	 1	 1.1	 0.9;
	 41	 1	 0	 0	 0	 0	 34	 1	 0	 230	 1	 1.1	 0.9;
	 42	 1	 15.28	 7.35	 0	 0	 34	 1	 0	 69	 1	 1.1	 0.9;
	 43	 1	 7.04	 3.01	 0	 0	 34	 1	 0	 69	 1	 1.1	 0.9;
	 44	 1	 0	 0	 0	 0	 34	 1	 0	 230	 1	 1.1	 0.9;
	 45	 1	 7.96	 3.67	 0	 0	 34	 1	 0	 69	 1	 1.1	 0.9;
	 46	 1	 11.96	 4.73	 0	 0	 34	 1	 0	 69	 1	 1.1	 0.9;
	 47	 1	 14.25	 2.71	 0	 0	 34	 1	 0	 69	 1	 1.1	 0.9;
	 48	 1	 9.77	 1.86	 0	 0	 34	 1	 0	 69	 1	 1.1	 0.9;
	 49	 1	 9.99	 4.17	 0	 0	 34	 1	 0	 69	 1	 1.1	 0.9;
	 50	 1	 3.69	 0.7	 0	 0	 34	 1	 0	 69	 1	 1.1	 0.9;
	 51	 1	 8.53	 3.18	 0	 0	 34	 1	 0	 69	 1	 1.1	 0.9;
	 52	 1	 25.06	 4.74	 0	 0	 34	 1	 0	 69	 1	 1.1	 0.9;
	 53	 1	 13.35	 2.52	 0	 0	 34	 1	 0	 69	 1	 1.1	 0.9;
	 54	 1	 7.46	 1.41	 0	 0	 34	 1	 0	 69	 1	 1.1	 0.9;
	 55	 1	 13.14	 2.49	 0	 0	 34	 1	 0	 69	 1	 1.1	 0.9;
	 56	 1	 0	 0	 0	 0	 34	 1	 0	 138	 1	 1.1	 0.9;
	 57	 1	 7.35	 1.39	 0	 0	 34	 1	 0	 69	 1	 1.1	 0.9;
	 58	 1	 12.26	 2.3	 0	 0	 34	 1	 0	 69	 1	 1.1	 0.9;
	 59	 1	 6.12	 1.15	 0	 0	 34	 1	 0	 69	 1	 1.1	 0.9;
	 60	 1	 8.33	 1.57	 0	 0	 34	 1	 0	 69	 1	 1.1	 0.9;
	 61	 1	 7.62	 1.43	 0	 0	 34	 1	 0	 69	 1	 1.1	 0.9;
	 62	 1	 12.42	 2.35	 0	 0	 34	 1	 0	 69	 1	 1.1	 0.9;
	 63	 1	 4.79	 0.9	 0	 0	 34	 1	 0	 69	 1	 1.1	 0.9;
	 64	 1	 7.66	 1.45	 0	 0	 34	 1	 0	 69	 1	 1.1	 0.9;
	 65	 1	 21.01	 4.02	 0	 0	 34	 1	 0	 69	 1	 1.1	 0.9;
	 66	 1	 15.42	 6.77	 0	 0	 34	 1	 0	 69	 1	 1.1	 0.9;
	 67	 1	 8.22	 1.56	 0	 0	 34	 1	 0	 69	 1	 1.1	 0.9;
	 68	 1	 12.33	 4.78	 0	 0	 34	 1	 0	 69	 1	 1.1	 0.9;
	 69	 1	 0	 0	 0	 0	 34	 1	 0	 138	 1	 1.1	 0.9;
	 70	 1	 6.66	 3.3	 0	 0	 34	 1	 0	 69	 1	 1.1	 0.9;
	 71	 1	 0	 0	 0	 0	 34	 1	 0	 138	 1	 1.1	 0.9;
	 72	 1	 0	 0	 0	 0	 34	 1	 0	 345	 1	 1.1	 0.9;
	 73	 1	 0	 0	 0	 0	 34	 1	 0	 138	 1	 1.1	 0.9;
	 74	 1	 0	 0	 0	 0	 34	 1	 0	 138	 1	 1.1	 0.9;
	 75	 1	 6.24	 2.57	 0	 0	 34	 1	 0	 69	 1	 1.1	 0.9;
	 76	 1	 6.86	 2.68	 0	 0	 34	 1	 0	 69	 1	 1.1	 0.9;
	 77	 1	 6.6	 2.61	 0	 0	 34	 1	 0	 69	 1	 1.1	 0.9;
	 78	 1	 6.86	 3.01	 0	 0	 34	 1	 0	 69	 1	 1.1	 0.9;
	 79	 1	 0	 0	 0	 0	 34	 1	 0	 138	 1	 1.1	 0.9;
	 80	 1	 9.25	 4.23	 0	 0	 34	 1	 0	 69	 1	 1.1	 0.9;
	 81	 1	 3.92	 1.51	 0	 0	 34	 1	 0	 69	 1	 1.1	 0.9;
	 82	 1	 6.62	 3.15	 0	 0	 34	 1	 0	 69	 1	 1.1	 0.9;
	 83	 1	 7.34	 3.19	 0	 0	 34	 1	 0	 138	 1	 1.1	 0.9;
	 84	 1	 13.17	 5.01	 0	 0	 34	 1	 0	 69	 1	 1.1	 0.9;
	 85	 1	 29.16	 10.98	 0	 0	 34	 1	 0	 69	 1	 1.1	 0.9;
	 86	 1	 7.22	 3.42	 0	 0	 34	 1	 0	 69	 1	 1.1	 0.9;
	 87	 1	 10.02	 4.21	 0	 0	 34	 1	 0	 69	 1	 1.1	 0.9;
	 88	 1	 4.91	 0.94	 0	 0	 34	 1	 0	 69	 1	 1.1	 0.9;
	 89	 1	 8.78	 1.68	 0	 0	 34	 1	 0	 69	 1	 1.1	 0.9;
	 90	 1	 5.64	 1.07	 0	 0	 34	 1	 0	 69	 1	 1.1	 0.9;
	 91	 1	 7.38	 1.4	 0	 0	 34	 1	 0	 69	 1	 1.1	 0.9;
	 92	 1	 8.01	 3.6	 0	 0	 34	 1	 0	 69	 1	 1.1	 0.9;
	 93	 1	 3.5	 1.14	 0	 0	 34	 1	 0	 69	 1	 1.1	 0.9;
	 94	 1	 6.91	 1.3	 0	 0	 34	 1	 0	 69	 1	 1.1	 0.9;
	 95	 1	 10.74	 2.02	 0	 0	 34	 1	 0	 69	 1	 1.1	 0.9;
	 96	 1	 10.14	 1.91	 0	 0	 34	 1	 0	 69	 1	 1.1	 0.9;
	 97	 1	 9.88	 1.85	 0	 0	 34	 1	 0	 69	 1	 1.1	 0.9;
	 98	 1	 15.19	 2.88	 0	 0	 34	 1	 0	 69	 1	 1.1	 0.9;
	 99	 1	 3.76	 0.72	 0	 0	 34	 1	 0	 69	 1	 1.1	 0.9;
	 100	 1	 5.77	 2.72	 0	 0	 34	 1	 0	 69	 1	 1.1	 0.9;
	 101	 1	 0	 0	 0	 0	 34	 1	 0	 138	 1	 1.1	 0.9;
	 102	 1	 2.09	 0.97	 0	 0	 34	 1	 0	 69	 1	 1.1	 0.9;
	 103	 1	 0	 0	 0	 0	 34	 1	 0	 138	 1	 1.1	 0.9;
	 104	 1	 5.09	 2.17	 0	 0	 34	 1	 0	 138	 1	 1.1	 0.9;
	 105	 1	 4.74	 2.1	 0	 0	 34	 1	 0	 138	 1	 1.1	 0.9;
	 106	 1	 6.47	 2.41	 0	 0	 34	 1	 0	 138	 1	 1.1	 0.9;
	 107	 1	 7.11	 3.53	 0	 0	 34	 1	 0	 138	 1	 1.1	 0.9;
	 108	 1	 0	 0	 0	 0	 34	 1	 0	 138	 1	 1.1	 0.9;
	 109	 1	 0	 0	 0	 0	 34	 1	 0	 345	 1	 1.1	 0.9;
	 110	 1	 0	 0	 0	 0	 34	 1	 0	 345	 1	 1.1	 0.9;
	 111	 1	 0	 0	 0	 0	 34	 1	 0	 345	 1	 1.1	 0.9;
	 112	 1	 3.73	 1.63	 0	 0	 34	 1	 0	 138	 1	 1.1	 0.9;
	 113	 1	 0	 0	 0	 0	 34	 1	 0	 345	 1	 1.1	 0.9;
	 114	 1	 0	 0	 0	 0	 34	 1	 0	 345	 1	 1.1	 0.9;
	 115	 1	 0	 0	 0	 0	 34	 1	 0	 345	 1	 1.1	 0.9;
	 116	 1	 5.13	 2.34	 0	 0	 34	 1	 0	 69	 1	 1.1	 0.9;
	 117	 1	 4.57	 2.1	 0	 0	 34	 1	 0	 69	 1	 1.1	 0.9;
	 118	 1	 26.99	 11.11	 0	 0	 34	 1	 0	 69	 1	 1.1	 0.9;
	 119	 1	 4.67	 2.01	 0	 0	 34	 1	 0	 69	 1	 1.1	 0.9;
	 120	 1	 27.48	 9.78	 0	 0	 34	 1	 0	 69	 1	 1.1	 0.9;
	 121	 1	 8.14	 3.35	 0	 0	 34	 1	 0	 69	 1	 1.1	 0.9;
	 122	 1	 3.8	 1.77	 0	 0	 34	 1	 0	 69	 1	 1.1	 0.9;
	 123	 1	 6.65	 3.12	 0	 0	 34	 1	 0	 69	 1	 1.1	 0.9;
	 124	 1	 8.08	 2.94	 0	 0	 34	 1	 0	 69	 1	 1.1	 0.9;
	 125	 1	 12.12	 5.29	 0	 0	 34	 1	 0	 69	 1	 1.1	 0.9;
	 126	 1	 6.89	 2.95	 0	 0	 34	 1	 0	 69	 1	 1.1	 0.9;
	 127	 1	 1.43	 0.56	 0	 0	 34	 1	 0	 69	 1	 1.1	 0.9;
	 128	 1	 2.21	 0.95	 0	 0	 34	 1	 0	 69	 1	 1.1	 0.9;
	 129	 1	 6.29	 3.18	 0	 0	 34	 1	 0	 69	 1	 1.1	 0.9;
	 130	 1	 5.24	 2.47	 0	 0	 34	 1	 0	 69	 1	 1.1	 0.9;
	 131	 1	 19.74	 8.46	 0	 0	 34	 1	 0	 69	 1	 1.1	 0.9;
	 132	 1	 0	 0	 0	 0	 34	 1	 0	 345	 1	 1.1	 0.9;
	 133	 1	 4.71	 2.11	 0	 0	 34	 1	 0	 69	 1	 1.1	 0.9;
	 134	 1	 34.13	 14.76	 0	 0	 34	 1	 0	 69	 1	 1.1	 0.9;
	 135	 1	 0	 0	 0	 0	 34	 1	 0	 138	 1	 1.1	 0.9;
	 136	 1	 8.62	 2.65	 0	 0	 34	 1	 0	 69	 1	 1.1	 0.9;
	 137	 1	 4.41	 2.15	 0	 0	 34	 1	 0	 69	 1	 1.1	 0.9;
	 138	 1	 4.57	 2.21	 0	 0	 34	 1	 0	 69	 1	 1.1	 0.9;
	 139	 1	 0	 0	 0	 0	 34	 1	 0	 138	 1	 1.1	 0.9;
	 140	 1	 3.54	 1.73	 0	 0	 34	 1	 0	 69	 1	 1.1	 0.9;
	 141	 1	 7.28	 2.95	 0	 0	 34	 1	 0	 138	 1	 1.1	 0.9;
	 142	 1	 7	 3.49	 0	 0	 34	 1	 0	 138	 1	 1.1	 0.9;
	 143	 1	 2.73	 1.11	 0	 0	 34	 1	 0	 138	 1	 1.1	 0.9;
	 144	 1	 5.46	 2.62	 0	 0	 34	 1	 0	 138	 1	 1.1	 0.9;
	 145	 1	 8.54	 3.25	 0	 0	 34	 1	 0	 69	 1	 1.1	 0.9;
	 146	 1	 0	 0	 0	 0	 34	 1	 0	 138	 1	 1.1	 0.9;
	 147	 1	 8.62	 3.57	 0	 0	 34	 1	 0	 138	 1	 1.1	 0.9;
	 148	 1	 14.37	 6.51	 0	 0	 34	 1	 0	 138	 1	 1.1	 0.9;
	 149	 1	 0	 0	 0	 0	 34	 1	 0	 138	 1	 1.1	 0.9;
	 150	 1	 4.44	 2.19	 0	 0	 34	 1	 0	 138	 1	 1.1	 0.9;
	 151	 1	 7.69	 2.99	 0	 0	 34	 1	 0	 138	 1	 1.1	 0.9;
	 152	 1	 5.26	 2.46	 0	 0	 34	 1	 0	 69	 1	 1.1	 0.9;
	 153	 1	 19.57	 8.52	 0	 0	 34	 1	 0	 138	 1	 1.1	 0.9;
	 154	 1	 39.31	 17.36	 0	 0	 34	 1	 0	 138	 1	 1.1	 0.9;
	 155	 1	 13.44	 5.28	 0	 0	 34	 1	 0	 138	 1	 1.1	 0.9;
	 156	 1	 0	 0	 0	 0	 34	 1	 0	 138	 1	 1.1	 0.9;
	 157	 1	 6.02	 2.45	 0	 0	 34	 1	 0	 69	 1	 1.1	 0.9;
	 158	 1	 4.74	 2.16	 0	 0	 34	 1	 0	 69	 1	 1.1	 0.9;
	 159	 1	 7.25	 3.04	 0	 0	 34	 1	 0	 138	 1	 1.1	 0.9;
	 160	 1	 4.71	 2.31	 0	 0	 34	 1	 0	 138	 1	 1.1	 0.9;
	 161	 1	 47.15	 19.58	 0	 0	 34	 1	 0	 138	 1	 1.1	 0.9;
	 162	 1	 7.35	 2.95	 0	 0	 34	 1	 0	 69	 1	 1.1	 0.9;
	 163	 1	 21.05	 8.45	 0	 0	 34	 1	 0	 138	 1	 1.1	 0.9;
	 164	 1	 10.31	 3.9	 0	 0	 34	 1	 0	 69	 1	 1.1	 0.9;
	 165	 1	 4.02	 1.92	 0	 0	 34	 1	 0	 138	 1	 1.1	 0.9;
	 166	 1	 9.1	 4.44	 0	 0	 34	 1	 0	 138	 1	 1.1	 0.9;
	 167	 1	 0	 0	 0	 0	 34	 1	 0	 138	 1	 1.1	 0.9;
	 168	 1	 9.01	 3.93	 0	 0	 34	 1	 0	 69	 1	 1.1	 0.9;
	 169	 1	 3.76	 1.82	 0	 0	 34	 1	 0	 138	 1	 1.1	 0.9;
	 170	 1	 0	 0	 0	 0	 34	 1	 0	 138	 1	 1.1	 0.9;
	 171	 1	 4.08	 1.55	 0	 0	 34	 1	 0	 69	 1	 1.1	 0.9;
	 172	 1	 9.06	 3.78	 0	 0	 34	 1	 0	 138	 1	 1.1	 0.9;
	 173	 1	 0	 0	 0	 0	 34	 1	 0	 138	 1	 1.1	 0.9;
	 174	 1	 22.9	 9.26	 0	 0	 34	 1	 0	 138	 1	 1.1	 0.9;
	 175	 1	 31.88	 9.2	 0	 0	 34	 1	 0	 69	 1	 1.1	 0.9;
	 176	 1	 13.95	 5.51	 0	 0	 34	 1	 0	 138	 1	 1.1	 0.9;
	 177	 1	 0	 0	 0	 0	 34	 1	 0	 138	 1	 1.1	 0.9;
	 178	 1	 0	 0	 0	 0	 34	 1	 0	 138	 1	 1.1	 0.9;
	 179	 1	 0	 0	 0	 0	 34	 1	 0	 138	 1	 1.1	 0.9;
	 180	 1	 4.15	 1.74	 0	 0	 34	 1	 0	 69	 1	 1.1	 0.9;
	 181	 1	 0	 0	 0	 0	 34	 1	 0	 138	 1	 1.1	 0.9;
	 182	 1	 20.82	 7.43	 0	 0	 34	 1	 0	 69	 1	 1.1	 0.9;
	 183	 1	 4.92	 2.34	 0	 0	 34	 1	 0	 69	 1	 1.1	 0.9;
	 184	 1	 4.9	 1.91	 0	 0	 34	 1	 0	 69	 1	 1.1	 0.9;
	 185	 1	 5.84	 2.45	 0	 0	 34	 1	 0	 69	 1	 1.1	 0.9;
	 186	 1	 0	 0	 0	 0	 34	 1	 0	 138	 1	 1.1	 0.9;
	 187	 1	 6.75	 2.8	 0	 0	 34	 1	 0	 69	 1	 1.1	 0.9;
	 188	 1	 0	 0	 0	 0	 34	 1	 0	 138	 1	 1.1	 0.9;
	 189	 1	 9.02	 3.72	 0	 0	 34	 1	 0	 138	 1	 1.1	 0.9;
	 190	 1	 11.18	 3.41	 0	 0	 34	 1	 0	 69	 1	 1.1	 0.9;
	 191	 1	 0	 0	 0	 0	 34	 1	 0	 138	 1	 1.1	 0.9;
	 192	 1	 15.77	 7.43	 0	 0	 34	 1	 0	 69	 1	 1.1	 0.9;
	 193	 1	 7.03	 3.35	 0	 0	 34	 1	 0	 138	 1	 1.1	 0.9;
	 194	 1	 5.78	 2.66	 0	 0	 34	 1	 0	 138	 1	 1.1	 0.9;
	 195	 1	 5.31	 2.56	 0	 0	 34	 1	 0	 69	 1	 1.1	 0.9;
	 196	 1	 0	 0	 0	 0	 34	 1	 0	 138	 1	 1.1	 0.9;
	 197	 1	 9.54	 4.18	 0	 0	 34	 1	 0	 138	 1	 1.1	 0.9;
	 198	 1	 4.66	 1.88	 0	 0	 34	 1	 0	 69	 1	 1.1	 0.9;
	 199	 1	 0	 0	 0	 0	 34	 1	 0	 138	 1	 1.1	 0.9;
	 200	 1	 7.54	 3.37	 0	 0	 34	 1	 0	 138	 1	 1.1	 0.9;
...
];

mpc_regionR2.gen = [
%	bus         Pg          Qg          Qmax        Qmin        Vg          mBase       status      Pmax        Pmin        Pc1         Pc2         Qc1min      Qc1max      Qc2min      Qc2max      ramp_agc    ramp_10     ramp_30     ramp_q      apf         
	 1	 391	 0	 304	-304	 1	 100	 1	 607	 175	 0	 0	 0	 0	 0	 0	 0	 0	 0	 0	 622.4;
	 2	 355.5	 66.25	 425.2	-292.7	 1	 100	 1	 566	 145	 0	 0	 0	 0	 0	 0	 0	 0	 0	 0	 878;
	 2	 212.5	 42.7	 274.1	-188.7	 1	 100	 1	 364	 61	 0	 0	 0	 0	 0	 0	 0	 0	 0	 0	 566;
	 3	 81.5	 33.65	 216	-148.7	 1	 100	 1	 128	 35	 0	 0	 0	 0	 0	 0	 0	 0	 0	 0	 446;
	 3	 225	 4	 216	-208	 1	 100	 1	 415	 35	 0	 0	 0	 0	 0	 0	 0	 0	 0	 0	 446;
	 4	 223.75	 11.5	 216	-193	 1	 100	 1	 385	 62.5	 0	 0	 0	 0	 0	 0	 0	 0	 0	 0	 446;
	 4	 168.25	 36.7	 235.4	-162	 1	 100	 1	 274	 62.5	 0	 0	 0	 0	 0	 0	 0	 0	 0	 0	 486;
	 5	 314.5	 0	 252	-252	 1	 100	 1	 504	 125	 0	 0	 0	 0	 0	 0	 0	 0	 0	 0	 410;
	 6	 8	-0.1	 7	-7.2	 1	 100	 1	 14	 2	 0	 0	 0	 0	 0	 0	 0	 0	 0	 0	 8.4;
	 6	 7	-0.45	 6.3	-7.2	 1	 100	 1	 12	 2	 0	 0	 0	 0	 0	 0	 0	 0	 0	 0	 8.4;
	 6	 4.5	-0.45	 6.3	-7.2	 1	 100	 1	 7	 2	 0	 0	 0	 0	 0	 0	 0	 0	 0	 0	 8.4;
	 6	 3.5	-0.45	 6.3	-7.2	 1	 100	 1	 5	 2	 0	 0	 0	 0	 0	 0	 0	 0	 0	 0	 8.4;
	 6	 6	-0.45	 6.3	-7.2	 1	 100	 1	 10	 2	 0	 0	 0	 0	 0	 0	 0	 0	 0	 0	 8.4;
	 6	 8	-0.1	 7	-7.2	 1	 100	 1	 14	 2	 0	 0	 0	 0	 0	 0	 0	 0	 0	 0	 8.4;
	 6	 8.5	 0	 8	-8	 1	 100	 1	 15	 2	 0	 0	 0	 0	 0	 0	 0	 0	 0	 0	 8.4;
	 6	 7	-0.45	 6.3	-7.2	 1	 100	 1	 12	 2	 0	 0	 0	 0	 0	 0	 0	 0	 0	 0	 8.4;
	 6	 5	-0.45	 6.3	-7.2	 1	 100	 1	 8	 2	 0	 0	 0	 0	 0	 0	 0	 0	 0	 0	 8.4;
	 6	 5	-0.45	 6.3	-7.2	 1	 100	 1	 8	 2	 0	 0	 0	 0	 0	 0	 0	 0	 0	 0	 8.4;
	 6	 5	-0.45	 6.3	-7.2	 1	 100	 1	 8	 2	 0	 0	 0	 0	 0	 0	 0	 0	 0	 0	 8.4;
	 6	 5	-0.45	 6.3	-7.2	 1	 100	 1	 8	 2	 0	 0	 0	 0	 0	 0	 0	 0	 0	 0	 8.4;
	 6	 4	-0.45	 6.3	-7.2	 1	 100	 1	 6	 2	 0	 0	 0	 0	 0	 0	 0	 0	 0	 0	 8.4;
	 6	 7.5	-0.1	 7	-7.2	 1	 100	 1	 13	 2	 0	 0	 0	 0	 0	 0	 0	 0	 0	 0	 8.4;
	 6	 11.5	 0	 11	-11	 1	 100	 1	 21	 2	 0	 0	 0	 0	 0	 0	 0	 0	 0	 0	 8.4;
	 6	 7	-0.45	 6.3	-7.2	 1	 100	 1	 12	 2	 0	 0	 0	 0	 0	 0	 0	 0	 0	 0	 8.4;
	 6	 7.5	-0.1	 7	-7.2	 1	 100	 1	 13	 2	 0	 0	 0	 0	 0	 0	 0	 0	 0	 0	 8.4;
	 6	 4	-0.45	 6.3	-7.2	 1	 100	 1	 6	 2	 0	 0	 0	 0	 0	 0	 0	 0	 0	 0	 8.4;
	 6	 9	 0	 8	-8	 1	 100	 1	 16	 2	 0	 0	 0	 0	 0	 0	 0	 0	 0	 0	 8.4;
	 6	 4	-0.45	 6.3	-7.2	 1	 100	 1	 6	 2	 0	 0	 0	 0	 0	 0	 0	 0	 0	 0	 8.4;
	 6	 7	-0.45	 6.3	-7.2	 1	 100	 1	 12	 2	 0	 0	 0	 0	 0	 0	 0	 0	 0	 0	 8.4;
	 6	 9.5	 0	 9	-9	 1	 100	 1	 17	 2	 0	 0	 0	 0	 0	 0	 0	 0	 0	 0	 8.4;
	 6	 4.5	-0.45	 6.3	-7.2	 1	 100	 1	 7	 2	 0	 0	 0	 0	 0	 0	 0	 0	 0	 0	 8.4;
	 6	 11.5	 0	 11	-11	 1	 100	 1	 21	 2	 0	 0	 0	 0	 0	 0	 0	 0	 0	 0	 8.4;
	 7	 118	 10.3	 111.6	-91	 1	 100	 1	 181	 55	 0	 0	 0	 0	 0	 0	 0	 0	 0	 0	 180;
	 7	 140	 0	 110	-110	 1	 100	 1	 220	 60	 0	 0	 0	 0	 0	 0	 0	 0	 0	 0	 196.9;
	 8	 59	 53.45	 231.3	-124.4	 1	 100	 1	 93	 25	 0	 0	 0	 0	 0	 0	 0	 0	 0	 0	 373.2;
	 8	 88.5	 24.05	 117.1	-69	 1	 100	 1	 137	 40	 0	 0	 0	 0	 0	 0	 0	 0	 0	 0	 189;
	 8	 152	 0	 132	-132	 1	 100	 1	 264	 40	 0	 0	 0	 0	 0	 0	 0	 0	 0	 0	 189;
	 8	 100	 18.55	 117.1	-80	 1	 100	 1	 160	 40	 0	 0	 0	 0	 0	 0	 0	 0	 0	 0	 189;
	 9	 347.5	 0	 325	-325	 1	 100	 1	 650	 45	 0	 0	 0	 0	 0	 0	 0	 0	 0	 0	 175;
	 9	 195	 0	 173	-173	 1	 100	 1	 345	 45	 0	 0	 0	 0	 0	 0	 0	 0	 0	 0	 175;
	 9	 405.5	 0	 391	-391	 1	 100	 1	 781	 30	 0	 0	 0	 0	 0	 0	 0	 0	 0	 0	 200;
	 10	 98.5	 16	 106	-74	 1	 100	 1	 147	 50	 0	 0	 0	 0	 0	 0	 0	 0	 0	 0	 171.1;
	 10	 146.5	 0	 122	-122	 1	 100	 1	 243	 50	 0	 0	 0	 0	 0	 0	 0	 0	 0	 0	 171.1;
	 10	 93	 19	 106	-68	 1	 100	 1	 136	 50	 0	 0	 0	 0	 0	 0	 0	 0	 0	 0	 171.1;
	 10	 108.5	 11	 106	-84	 1	 100	 1	 167	 50	 0	 0	 0	 0	 0	 0	 0	 0	 0	 0	 171.1;
	 10	 108.2	 25.55	 125.1	-74	 1	 100	 1	 147	 69.4	 0	 0	 0	 0	 0	 0	 0	 0	 0	 0	 201.9;
	 10	 204.125	 0	 170	-170	 1	 100	 1	 339	 69.25	 0	 0	 0	 0	 0	 0	 0	 0	 0	 0	 201.9;
	 11	 41	 10.15	 63.5	-43.2	 1	 100	 1	 72	 10	 0	 0	 0	 0	 0	 0	 0	 0	 0	 0	 102.4;
	 12	 77	 32.2	 139.4	-75	 1	 100	 1	 124	 30	 0	 0	 0	 0	 0	 0	 0	 0	 0	 0	 225;
	 12	 74.5	 36.1	 156.2	-84	 1	 100	 1	 119	 30	 0	 0	 0	 0	 0	 0	 0	 0	 0	 0	 252;
	 12	 160	 0	 155	-155	 1	 100	 1	 310	 10	 0	 0	 0	 0	 0	 0	 0	 0	 0	 0	 61;
	 12	 85	 0	 80	-80	 1	 100	 1	 160	 10	 0	 0	 0	 0	 0	 0	 0	 0	 0	 0	 61;
	 12	 89.5	 0	 85	-85	 1	 100	 1	 169	 10	 0	 0	 0	 0	 0	 0	 0	 0	 0	 0	 61;
	 12	 123.5	 0	 119	-119	 1	 100	 1	 237	 10	 0	 0	 0	 0	 0	 0	 0	 0	 0	 0	 61;
	 12	 218	 28.7	 258.4	-201	 1	 100	 1	 401	 35	 0	 0	 0	 0	 0	 0	 0	 0	 0	 0	 417;
	 13	 50.105	 6.4	 64.4	-51.6	 1	 100	 1	 86	 14.21	 0	 0	 0	 0	 0	 0	 0	 0	 0	 0	 113.7;
	 13	 111	 0	 106	-106	 1	 100	 1	 212	 10	 0	 0	 0	 0	 0	 0	 0	 0	 0	 0	 57.4;
	 13	 67.5	 0	 63	-63	 1	 100	 1	 125	 10	 0	 0	 0	 0	 0	 0	 0	 0	 0	 0	 57.4;
	 13	 93.5	 0	 89	-89	 1	 100	 1	 177	 10	 0	 0	 0	 0	 0	 0	 0	 0	 0	 0	 57.4;
	 13	 148	 0	 143	-143	 1	 100	 1	 286	 10	 0	 0	 0	 0	 0	 0	 0	 0	 0	 0	 57.4;
	 13	 147.845	 0	 143	-143	 1	 100	 1	 285	 10.69	 0	 0	 0	 0	 0	 0	 0	 0	 0	 0	 75;
	 14	 6.5	 0	 13.2	-13.2	 1	 100	 1	 11	 2	 0	 0	 0	 0	 0	 0	 0	 0	 0	 0	 11.2;
	 14	 10.5	 0	 13.2	-13.2	 1	 100	 1	 19	 2	 0	 0	 0	 0	 0	 0	 0	 0	 0	 0	 11.2;
	 14	 15.78	-0.6	 14.4	-15.6	 1	 100	 1	 28	 3.56	 0	 0	 0	 0	 0	 0	 0	 0	 0	 0	 25;
	 14	 7.25	 3.15	 20.3	-14	 1	 100	 1	 11	 3.5	 0	 0	 0	 0	 0	 0	 0	 0	 0	 0	 42;
	 14	 19.5	 5.05	 30.5	-20.4	 1	 100	 1	 35	 4	 0	 0	 0	 0	 0	 0	 0	 0	 0	 0	 49.2;
	 14	 14	 5.05	 30.5	-20.4	 1	 100	 1	 24	 4	 0	 0	 0	 0	 0	 0	 0	 0	 0	 0	 49.2;
	 14	 15	 5.05	 30.5	-20.4	 1	 100	 1	 26	 4	 0	 0	 0	 0	 0	 0	 0	 0	 0	 0	 49.2;
];

mpc_regionR2.branch = [
%	fbus        tbus        r           x           b           rateA       rateB       rateC       ratio       angle       status      angmin      angmax      
	 1	 421	 0.004438	 0.030113	 0.05485	 366	 384.3	 402.6	 0	 0	 1	-30	 30;
	 1	 566	 0.000272	 0.021798	 0	 500	 500	 500	 1	 0	 1	-30	 30;
	 1	 566	 0.000272	 0.021798	 0	 500	 500	 500	 1	 0	 1	-30	 30;
	 567	 1	 0.00107	 0.055656	 0	 300	 300	 300	 1	 0	 1	-30	 30;
	 567	 1	 0.00107	 0.055656	 0	 300	 300	 300	 1	 0	 1	-30	 30;
	 2	 4	 8e-06	 0.000125	 0.00122	 960	 1008	 1056	 0	 0	 1	-30	 30;
	 2	 110	 0.000512	 0.00542	 0.08106	 1097	 1151.9	 1206.7	 0	 0	 1	-30	 30;
	 2	 110	 0.000512	 0.00542	 0.08106	 1097	 1151.9	 1206.7	 0	 0	 1	-30	 30;
	 2	 568	 0.000285	 0.022767	 0	 650	 650	 650	 1	 0	 1	-30	 30;
	 2	 568	 0.000285	 0.022767	 0	 650	 650	 650	 1	 0	 1	-30	 30;
	 3	 4	 3e-06	 4.3e-05	 0.00069	 1306	 1371.3	 1436.6	 0	 0	 1	-30	 30;
	 3	 12	 0.000272	 0.003377	 0.03129	 792	 831.6	 871.2	 0	 0	 1	-30	 30;
	 3	 569	 0.000529	 0.036996	 0	 400	 400	 400	 1	 0	 1	-30	 30;
	 3	 569	 0.000529	 0.036996	 0	 400	 400	 400	 1	 0	 1	-30	 30;
	 4	 115	 0.000185	 0.002933	 0.04816	 1419	 1489.9	 1560.9	 0	 0	 1	-30	 30;
	 5	 549	 0.021803	 0.14975	 0.27236	 366	 384.3	 402.6	 0	 0	 1	-30	 30;
	 5	 570	 0.001238	 0.054486	 0	 200	 200	 200	 1	 0	 1	-30	 30;
	 5	 570	 0.001238	 0.054486	 0	 200	 200	 200	 1	 0	 1	-30	 30;
	 571	 5	 0.002854	 0.1113	 0	 150	 150	 150	 1	 0	 1	-30	 30;
	 571	 5	 0.002854	 0.1113	 0	 150	 150	 150	 1	 0	 1	-30	 30;
	 5	 604	 0.011323	 0.079538	 0.13577	 366	 384.3	 402.6	 0	 0	 1	-30	 30;
	 6	 427	 0.009751	 0.038328	 0.01003	 159	 166.9	 174.9	 0	 0	 1	-30	 30;
	 6	 514	 0.025793	 0.093426	 0.02005	 142	 149.1	 156.2	 0	 0	 1	-30	 30;
	 6	 572	 0.002136	 0.083306	 0	 150	 150	 150	 1	 0	 1	-30	 30;
	 6	 572	 0.002136	 0.083306	 0	 150	 150	 150	 1	 0	 1	-30	 30;
	 7	 532	 0.002048	 0.005414	 0.00127	 118	 123.9	 129.8	 0	 0	 1	-30	 30;
	 7	 537	 0.001922	 0.007553	 0.00198	 159	 166.9	 174.9	 0	 0	 1	-30	 30;
	 7	 538	 0.002238	 0.009975	 0.00271	 175	 183.7	 192.5	 0	 0	 1	-30	 30;
	 7	 573	 0.000801	 0.041659	 0	 300	 300	 300	 1	 0	 1	-30	 30;
	 7	 573	 0.000801	 0.041659	 0	 300	 300	 300	 1	 0	 1	-30	 30;
	 8	 132	 0.001135	 0.013107	 0.11494	 736	 772.8	 809.6	 0	 0	 1	-30	 30;
	 8	 574	 0.000329	 0.024664	 0	 600	 600	 600	 1	 0	 1	-30	 30;
	 8	 574	 0.000329	 0.024664	 0	 600	 600	 600	 1	 0	 1	-30	 30;
	 9	 12	 3e-06	 4.7e-05	 0.00083	 1306	 1371.3	 1436.6	 0	 0	 1	-30	 30;
	 9	 398	 0.000524	 0.007392	 0.11941	 1306	 1371.3	 1436.6	 0	 0	 1	-30	 30;
	 9	 576	 0.000438	 0.032886	 0	 450	 450	 450	 1	 0	 1	-30	 30;
	 9	 576	 0.000438	 0.032886	 0	 450	 450	 450	 1	 0	 1	-30	 30;
	 10	 132	 0.000546	 0.007146	 0.06468	 812	 852.6	 893.2	 0	 0	 1	-30	 30;
	 10	 393	 0.001563	 0.017406	 0.16425	 736	 772.8	 809.6	 0	 0	 1	-30	 30;
	 10	 578	 0.000296	 0.02222	 0	 450	 450	 450	 1	 0	 1	-30	 30;
	 10	 578	 0.000296	 0.02222	 0	 450	 450	 450	 1	 0	 1	-30	 30;
	 11	 539	 0.008036	 0.029098	 0.00624	 142	 149.1	 156.2	 0	 0	 1	-30	 30;
	 11	 581	 0.002136	 0.083306	 0	 150	 150	 150	 1	 0	 1	-30	 30;
	 11	 581	 0.002136	 0.083306	 0	 150	 150	 150	 1	 0	 1	-30	 30;
	 12	 115	 0.000509	 0.005666	 0.05343	 736	 772.8	 809.6	 0	 0	 1	-30	 30;
	 12	 582	 0.000359	 0.026907	 0	 550	 550	 550	 1	 0	 1	-30	 30;
	 12	 582	 0.000359	 0.026907	 0	 550	 550	 550	 1	 0	 1	-30	 30;
	 13	 167	 0.002298	 0.009199	 0.00232	 159	 166.9	 174.9	 0	 0	 1	-30	 30;
	 13	 189	 0.00108	 0.006324	 0.00172	 205	 215.2	 225.5	 0	 0	 1	-30	 30;
	 13	 191	 0.002498	 0.007165	 0.00176	 128	 134.4	 140.8	 0	 0	 1	-30	 30;
	 13	 193	 0.002677	 0.009368	 0.0031	 159	 166.9	 174.9	 0	 0	 1	-30	 30;
	 13	 202	 0.001977	 0.01392	 0.00791	 381	 400.1	 419.1	 0	 0	 1	-30	 30;
	 13	 583	 0.003471	 0.12495	 0	 100	 100	 100	 1	 0	 1	-30	 30;
	 13	 583	 0.003471	 0.12495	 0	 100	 100	 100	 1	 0	 1	-30	 30;
	 14	 420	 0.056773	 0.22089	 0.00369	 80	 84	 88	 0	 0	 1	-30	 30;
	 14	 420	 0.056773	 0.22089	 0.00369	 80	 84	 88	 0	 0	 1	-30	 30;
	 14	 492	 0.066067	 0.54368	 0.01055	 131	 137.5	 144.1	 0	 0	 1	-30	 30;
	 14	 540	 0.015507	 0.060325	 0.00101	 80	 84	 88	 0	 0	 1	-30	 30;
	 14	 541	 0.14699	 0.11634	 0.00146	 24	 25.2	 26.4	 0	 0	 1	-30	 30;
	 14	 543	 0.024935	 0.11111	 0.00189	 88	 92.4	 96.8	 0	 0	 1	-30	 30;
	 14	 705	 0.035545	 0.17064	 0.0051	 110	 115.5	 121	 0	 0	 1	-30	 30;
	 571	 15	 0.049365	 0.18917	 0.00535	 92	 96.6	 101.2	 0	 0	 1	-30	 30;
	 15	 710	 0.39805	 0.31218	 0.00401	 24	 25.2	 26.4	 0	 0	 1	-30	 30;
	 16	 207	 0.071747	 0.14062	 0.00211	 41	 43.1	 45.1	 0	 0	 1	-30	 30;
	 16	 512	 0.052285	 0.085707	 0.00151	 39	 41	 42.9	 0	 0	 1	-30	 30;
	 16	 584	 0.058977	 0.13693	 0.00204	 57	 59.9	 62.7	 0	 0	 1	-30	 30;
	 17	 18	 0.007537	 0.021018	 0.00441	 118	 123.9	 129.8	 0	 0	 1	-30	 30;
	 17	 20	 0.016568	 0.041652	 0.01079	 118	 123.9	 129.8	 0	 0	 1	-30	 30;
	 17	 176	 0.016726	 0.044206	 0.01035	 118	 123.9	 129.8	 0	 0	 1	-30	 30;
	 17	 584	 0.003471	 0.12495	 0	 100	 100	 100	 1	 0	 1	-30	 30;
	 17	 584	 0.003471	 0.12495	 0	 100	 100	 100	 1	 0	 1	-30	 30;
	 18	 20	 0.009076	 0.021068	 0.00642	 118	 123.9	 129.8	 0	 0	 1	-30	 30;
	 19	 585	 0.2038	 0.16131	 0.00203	 24	 25.2	 26.4	 0	 0	 1	-30	 30;
	 19	 622	 0.17246	 0.1352	 0.00174	 24	 25.2	 26.4	 0	 0	 1	-30	 30;
	 20	 495	 0.060094	 0.16151	 0.03665	 118	 123.9	 129.8	 0	 0	 1	-30	 30;
	 570	 20	 0.014892	 0.078887	 0.02	 191	 200.6	 210.1	 0	 0	 1	-30	 30;
	 20	 585	 0.00806	 0.24987	 0	 50	 50	 50	 1	 0	 1	-30	 30;
	 20	 585	 0.00806	 0.24987	 0	 50	 50	 50	 1	 0	 1	-30	 30;
	 21	 22	 0.16838	 0.22134	 0.00303	 33	 34.7	 36.3	 0	 0	 1	-30	 30;
	 21	 426	 0.26733	 0.2701	 0.00358	 28	 29.4	 30.8	 0	 0	 1	-30	 30;
	 571	 22	 0.038751	 0.10587	 0.0018	 64	 67.2	 70.4	 0	 0	 1	-30	 30;
	 23	 24	 0.060121	 0.11514	 0.00181	 41	 43.1	 45.1	 0	 0	 1	-30	 30;
	 23	 25	 0.090728	 0.30274	 0.0048	 71	 74.6	 78.1	 0	 0	 1	-30	 30;
	 23	 26	 0.078326	 0.16098	 0.00307	 57	 59.9	 62.7	 0	 0	 1	-30	 30;
	 24	 476	 0.26963	 0.35453	 0.00486	 33	 34.7	 36.3	 0	 0	 1	-30	 30;
	 25	 690	 0.064021	 0.2491	 0.00416	 80	 84	 88	 0	 0	 1	-30	 30;
	 26	 27	 0.053342	 0.093121	 0.00144	 39	 41	 42.9	 0	 0	 1	-30	 30;
	 26	 509	 0.094021	 0.17485	 0.00409	 57	 59.9	 62.7	 0	 0	 1	-30	 30;
	 27	 693	 0.097945	 0.19198	 0.00288	 41	 43.1	 45.1	 0	 0	 1	-30	 30;
	 28	 30	 0.17751	 0.24746	 0.00423	 35	 36.8	 38.5	 0	 0	 1	-30	 30;
	 28	 691	 0.11146	 0.28659	 0.00444	 59	 61.9	 64.9	 0	 0	 1	-30	 30;
	 29	 470	 0.048061	 0.16212	 0.04035	 142	 149.1	 156.2	 0	 0	 1	-30	 30;
	 29	 586	 0.00806	 0.24987	 0	 50	 50	 50	 1	 0	 1	-30	 30;
	 29	 586	 0.00806	 0.24987	 0	 50	 50	 50	 1	 0	 1	-30	 30;
	 30	 32	 0.035662	 0.038843	 0.00053	 30	 31.5	 33	 0	 0	 1	-30	 30;
	 31	 32	 0.031518	 0.024943	 0.00031	 24	 25.2	 26.4	 0	 0	 1	-30	 30;
	 586	 32	 0.06035	 0.18535	 0.00348	 71	 74.6	 78.1	 0	 0	 1	-30	 30;
	 33	 36	 0.005099	 0.017011	 0.00027	 71	 74.6	 78.1	 0	 0	 1	-30	 30;
	 33	 589	 0.004454	 0.023729	 0.00042	 96	 100.8	 105.6	 0	 0	 1	-30	 30;
	 34	 613	 0.013134	 0.009304	 0.00015	 24	 25.2	 26.4	 0	 0	 1	-30	 30;
	 35	 156	 0.000884	 0.003681	 0.00115	 175	 183.7	 192.5	 0	 0	 1	-30	 30;
	 35	 338	 0.002175	 0.00855	 0.00224	 159	 166.9	 174.9	 0	 0	 1	-30	 30;
	 35	 587	 0.003471	 0.12495	 0	 100	 100	 100	 1	 0	 1	-30	 30;
	 35	 587	 0.003471	 0.12495	 0	 100	 100	 100	 1	 0	 1	-30	 30;
	 36	 212	 0.010479	 0.026937	 0.00042	 59	 61.9	 64.9	 0	 0	 1	-30	 30;
	 37	 38	 0.002851	 0.008745	 0.00024	 80	 84	 88	 0	 0	 1	-30	 30;
	 37	 655	 0.003099	 0.009114	 0.00019	 71	 74.6	 78.1	 0	 0	 1	-30	 30;
	 38	 588	 0.002309	 0.01029	 0.00017	 88	 92.4	 96.8	 0	 0	 1	-30	 30;
	 39	 40	 0.000745	 0.003151	 0.00071	 159	 166.9	 174.9	 0	 0	 1	-30	 30;
	 39	 588	 0.003471	 0.12495	 0	 100	 100	 100	 1	 0	 1	-30	 30;
	 39	 588	 0.003471	 0.12495	 0	 100	 100	 100	 1	 0	 1	-30	 30;
	 40	 589	 0.003471	 0.12495	 0	 100	 100	 100	 1	 0	 1	-30	 30;
	 40	 589	 0.003471	 0.12495	 0	 100	 100	 100	 1	 0	 1	-30	 30;
	 40	 590	 0.003046	 0.010449	 0.0025	 142	 149.1	 156.2	 0	 0	 1	-30	 30;
	 40	 605	 0.001531	 0.009412	 0.00271	 219	 229.9	 240.9	 0	 0	 1	-30	 30;
	 41	 44	 0.00047	 0.003048	 0.00607	 366	 384.3	 402.6	 0	 0	 1	-30	 30;
	 41	 590	 0.000577	 0.031138	 0	 350	 350	 350	 1	 0	 1	-30	 30;
	 591	 41	 0.001336	 0.066787	 0	 250	 250	 250	 1	 0	 1	-30	 30;
	 41	 604	 0.000239	 0.002537	 0.00581	 512	 537.6	 563.2	 0	 0	 1	-30	 30;
	 42	 48	 0.00496	 0.017719	 0.00035	 80	 84	 88	 0	 0	 1	-30	 30;
	 42	 348	 0.010881	 0.021544	 0.00032	 41	 43.1	 45.1	 0	 0	 1	-30	 30;
	 591	 42	 0.00598	 0.036343	 0.00067	 110	 115.5	 121	 0	 0	 1	-30	 30;
	 591	 43	 0.013833	 0.02119	 0.0003	 35	 36.8	 38.5	 0	 0	 1	-30	 30;
	 44	 396	 0.000929	 0.007618	 0.01372	 397	 416.8	 436.7	 0	 0	 1	-30	 30;
	 44	 592	 0.004637	 0.16694	 0	 100	 100	 100	 1	 0	 1	-30	 30;
	 44	 592	 0.004637	 0.16694	 0	 100	 100	 100	 1	 0	 1	-30	 30;
	 44	 596	 0.000128	 0.001726	 0.0036	 579	 608	 636.9	 0	 0	 1	-30	 30;
	 45	 51	 0.009299	 0.014095	 0.00029	 39	 41	 42.9	 0	 0	 1	-30	 30;
	 46	 49	 0.006725	 0.015253	 0.0003	 59	 61.9	 64.9	 0	 0	 1	-30	 30;
	 591	 46	 0.008465	 0.03293	 0.00055	 80	 84	 88	 0	 0	 1	-30	 30;
	 47	 48	 0.008741	 0.015772	 0.00023	 39	 41	 42.9	 0	 0	 1	-30	 30;
	 47	 666	 0.012134	 0.022562	 0.00053	 57	 59.9	 62.7	 0	 0	 1	-30	 30;
	 48	 350	 0.005485	 0.0141	 0.00022	 59	 61.9	 64.9	 0	 0	 1	-30	 30;
	 49	 50	 0.00795	 0.020435	 0.00032	 59	 61.9	 64.9	 0	 0	 1	-30	 30;
	 50	 52	 0.004788	 0.012177	 0.00019	 59	 61.9	 64.9	 0	 0	 1	-30	 30;
	 51	 66	 0.006196	 0.019028	 0.00036	 71	 74.6	 78.1	 0	 0	 1	-30	 30;
	 592	 51	 0.00647	 0.028829	 0.00049	 88	 92.4	 96.8	 0	 0	 1	-30	 30;
...